file 7506770 1589560826                                         
version 2
run CAIN-0-20200515-13:36:04-15433
attr configname CAIN
attr datetime 20200515-13:36:04
attr dist 200
attr experiment CAIN
attr inifile omnetpp.ini
attr iterationvars "$numUe=20, $pwr=-50, $dist=200, $mob=\"./movements/RWP-0.0.movements\""
attr iterationvars2 "$numUe=20, $pwr=-50, $dist=200, $mob=\"./movements/RWP-0.0.movements\", $repetition=0"
attr measurement "$numUe=20, $pwr=-50, $dist=200, $mob=\"./movements/RWP-0.0.movements\""
attr mob "\"./movements/RWP-0.0.movements\""
attr network lte.simulations.networks.CAIN
attr numUe 20
attr processid 15433
attr pwr -50
attr repetition 0
attr replication #0
attr resultdir results
attr runnumber 0
attr seedset 0
param **.**.amcMode "\"AUTO\""
param **.amcMode "\"D2D\""
param **.cainNetwork true
param **.channelControl.alpha 1.0
param **.channelControl.carrierFrequency 2100e+6Hz
param **.channelControl.pMax 10W
param **.d2dCqi 7
param **.deployer.numRbDl 50
param **.deployer.numRbUl 50
param **.distThresh ${dist=200}
param **.fbDelay 1
param **.feedbackComputation "xmldoc(\"config_channel.xml\")"
param **.mobility.constraintAreaMaxX 1000m
param **.mobility.constraintAreaMaxY 1000m
param **.mobility.constraintAreaMaxZ 0m
param **.mobility.constraintAreaMinX 0m
param **.mobility.constraintAreaMinY 0m
param **.mobility.constraintAreaMinZ 0m
param **.nic.phy.channelModel "xmldoc(\"config_channel.xml\")"
param **.numBands 50
param **.pwrThresh "${pwr= -50}"
param **.qtdThresh 3
param **.rbAllocationType "\"localized\""
param **.routingRecorder.enabled false
param **.tcpApp[*].tClose -1s
param **.ueD2DTx[*].mobility.changeAngleBy "normal(0deg, 30deg)"
param **.ueD2DTx[*].mobility.changeInterval "normal(5s, 0.1s)"
param **.ueD2DTx[*].mobility.nodeId -1
param **.ueD2DTx[*].mobility.speed "normal(2mps, 0.01mps)"
param **.ueD2DTx[*].mobility.traceFile "${mob=\"./movements/RWP-0.0.movements\",\"./movements/RWP-0.5.movements\",\"./movements/RPGM-0.0.movements\",\"./movements/RPGM-0.5.movements\",\"./movements/RWPRPGM-0.0.movements\",\"./movements/RWPRPGM-0.5.movements\"}"
param **.ueD2DTx[*].mobilityType "\"BonnMotionMobility\""
param **.usePreconfiguredTxParams false
param *.eNodeB*.numX2Apps 1
param *.eNodeB*.x2App[*].server.localPort "5000 + ancestorIndex(1)"
param *.eNodeB.d2dCapable false
param *.eNodeB.mobility.initFromDisplayString false
param *.eNodeB.mobility.initialX 300m
param *.eNodeB.mobility.initialY 300m
param *.eNodeB.nic.phy.enableD2DCqiReporting true
param *.eNodeB.txPower 19952.62315mw
param *.eNodeB.x2App[0].client.connectAddress "\"eNodeB1%x2ppp0\""
param *.eNodeB1.d2dCapable true
param *.eNodeB1.mobility.initFromDisplayString false
param *.eNodeB1.mobility.initialX 700m
param *.eNodeB1.mobility.initialY 300m
param *.eNodeB1.nic.phy.enableD2DCqiReporting true
param *.eNodeB1.txPower 19952.62315mw
param *.eNodeB1.x2App[0].client.connectAddress "\"eNodeB%x2ppp0\""
param *.extCell[*].bandAllocationType "\"FULL_ALLOC\""
param *.extCell[*].bandUtilization 0.5
param *.extCell[*].txDirection "\"ANISOTROPIC\""
param *.extCell[*].txPower 20
param *.extCell[0].position_x 100m
param *.extCell[0].position_y 600m
param *.extCell[0].txAngle 315
param *.extCell[1].position_x 600m
param *.extCell[1].position_y 600m
param *.extCell[1].txAngle 225
param *.numExtCells 2
param *.numUeCell 0
param *.numUeD2DRx 1
param *.numUeD2DTx 1
param *.ue*.macCellId 1
param *.ue*.masterId 1
param *.ue*.mobility.initFromDisplayString false
param *.ue*[0].macCellId 1
param *.ue*[0].masterId 1
param *.ue*[0].mobility.initFromDisplayString false
param *.ueD2D*.numTcpApps 1
param *.ueD2D*[*].d2dCapable true
param *.ueD2D*[0].d2dCapable false
param *.ueD2D*[0].numTcpApps 1
param *.ueD2DRx[0].mobility.initialX 310m
param *.ueD2DRx[0].mobility.initialY 350m
param *.ueD2DRx[0].tcpApp[*].localPort 1000
param *.ueD2DRx[0].tcpApp[*].typename "\"TCPSinkApp\""
param *.ueD2DTx*.nic.d2dPeerAddresses "\"ueD2DTx[1]\""
param *.ueD2DTx*.tcpApp[*].connectAddress "\"ueD2DTx[0]\""
param *.ueD2DTx*.tcpApp[*].localAddress "\"ueD2DTx\""
param *.ueD2DTx*.tcpApp[*].localPort 1000
param *.ueD2DTx*.tcpApp[*].sendBytes 1GiB
param *.ueD2DTx*.tcpApp[*].typename "\"TCPSessionApp\""
param *.ueD2DTx*.tcpApp[0].active true
param *.ueD2DTx*.tcpApp[0].connectPort 1000
param *.ueD2DTx*.tcpApp[0].tOpen uniform(0.010s,0.1s)
param *.ueD2DTx*.tcpApp[0].tSend uniform(0.15s,0.5s)
param *.ueD2DTx[0].mobility.initialX 290m
param *.ueD2DTx[0].mobility.initialY 350m
param *.ueD2DTx[0].tcpApp[*].localPort 1000
param *.ueD2DTx[0].tcpApp[*].sendBytes 1GiB
param *.ueD2DTx[0].tcpApp[*].typename "\"TCPSessionApp\""
param *.ueD2DTx[0].tcpApp[0].active true
param *.ueD2DTx[0].tcpApp[0].connectAddress "\"ueD2DRx[0]\""
param *.ueD2DTx[0].tcpApp[0].connectPort 1000
param *.ueD2DTx[0].tcpApp[0].localAddress "\"ueD2DTx[0]\""
param *.ueD2DTx[0].tcpApp[0].tOpen uniform(0.010s,0.1s)
param *.ueD2DTx[0].tcpApp[0].tSend uniform(0.15s,0.5s)

vector 8  CAIN.server.ppp[0].queue  queueLength:vector  ETV
attr interpolationmode  sample-hold
attr title  "queue length, vector"
vector 9  CAIN.server.ppp[0].ppp  txState:vector  ETV
attr interpolationmode  sample-hold
attr title  "tx state, vector"
vector 24  CAIN.router.ppp[0].queue  queueLength:vector  ETV
attr interpolationmode  sample-hold
attr title  "queue length, vector"
vector 25  CAIN.router.ppp[0].ppp  txState:vector  ETV
attr interpolationmode  sample-hold
attr title  "tx state, vector"
vector 35  CAIN.router.ppp[1].queue  queueLength:vector  ETV
attr interpolationmode  sample-hold
attr title  "queue length, vector"
vector 36  CAIN.router.ppp[1].ppp  txState:vector  ETV
attr interpolationmode  sample-hold
attr title  "tx state, vector"
vector 56  CAIN.pgw.ppp[0].queue  queueLength:vector  ETV
attr interpolationmode  sample-hold
attr title  "queue length, vector"
vector 57  CAIN.pgw.ppp[0].ppp  txState:vector  ETV
attr interpolationmode  sample-hold
attr title  "tx state, vector"
vector 67  CAIN.pgw.ppp[1].queue  queueLength:vector  ETV
attr interpolationmode  sample-hold
attr title  "queue length, vector"
vector 68  CAIN.pgw.ppp[1].ppp  txState:vector  ETV
attr interpolationmode  sample-hold
attr title  "tx state, vector"
vector 78  CAIN.pgw.pppInterface.queue  queueLength:vector  ETV
attr interpolationmode  sample-hold
attr title  "queue length, vector"
vector 79  CAIN.pgw.pppInterface.ppp  txState:vector  ETV
attr interpolationmode  sample-hold
attr title  "tx state, vector"
vector 120  CAIN.eNodeB.pppIf.queue  queueLength:vector  ETV
attr interpolationmode  sample-hold
attr title  "queue length, vector"
vector 121  CAIN.eNodeB.pppIf.ppp  txState:vector  ETV
attr interpolationmode  sample-hold
attr title  "tx state, vector"
vector 131  CAIN.eNodeB.x2ppp[0].queue  queueLength:vector  ETV
attr interpolationmode  sample-hold
attr title  "queue length, vector"
vector 132  CAIN.eNodeB.x2ppp[0].ppp  txState:vector  ETV
attr interpolationmode  sample-hold
attr title  "tx state, vector"
vector 178  CAIN.eNodeB1.pppIf.queue  queueLength:vector  ETV
attr interpolationmode  sample-hold
attr title  "queue length, vector"
vector 179  CAIN.eNodeB1.pppIf.ppp  txState:vector  ETV
attr interpolationmode  sample-hold
attr title  "tx state, vector"
vector 189  CAIN.eNodeB1.x2ppp[0].queue  queueLength:vector  ETV
attr interpolationmode  sample-hold
attr title  "queue length, vector"
vector 190  CAIN.eNodeB1.x2ppp[0].ppp  txState:vector  ETV
attr interpolationmode  sample-hold
attr title  "tx state, vector"
vector 231  CAIN.ueD2DTx[0].nic.phy  servingCell:vector  ETV
attr source  servingCell
attr title  "ID of the serving eNodeB for the UE, vector"
attr unit  ""
vector 263  CAIN.ueD2DTx[1].nic.phy  servingCell:vector  ETV
attr source  servingCell
attr title  "ID of the serving eNodeB for the UE, vector"
attr unit  ""
vector 295  CAIN.ueD2DTx[2].nic.phy  servingCell:vector  ETV
attr source  servingCell
attr title  "ID of the serving eNodeB for the UE, vector"
attr unit  ""
vector 327  CAIN.ueD2DTx[3].nic.phy  servingCell:vector  ETV
attr source  servingCell
attr title  "ID of the serving eNodeB for the UE, vector"
attr unit  ""
vector 359  CAIN.ueD2DTx[4].nic.phy  servingCell:vector  ETV
attr source  servingCell
attr title  "ID of the serving eNodeB for the UE, vector"
attr unit  ""
vector 391  CAIN.ueD2DTx[5].nic.phy  servingCell:vector  ETV
attr source  servingCell
attr title  "ID of the serving eNodeB for the UE, vector"
attr unit  ""
vector 423  CAIN.ueD2DTx[6].nic.phy  servingCell:vector  ETV
attr source  servingCell
attr title  "ID of the serving eNodeB for the UE, vector"
attr unit  ""
vector 455  CAIN.ueD2DTx[7].nic.phy  servingCell:vector  ETV
attr source  servingCell
attr title  "ID of the serving eNodeB for the UE, vector"
attr unit  ""
vector 487  CAIN.ueD2DTx[8].nic.phy  servingCell:vector  ETV
attr source  servingCell
attr title  "ID of the serving eNodeB for the UE, vector"
attr unit  ""
vector 519  CAIN.ueD2DTx[9].nic.phy  servingCell:vector  ETV
attr source  servingCell
attr title  "ID of the serving eNodeB for the UE, vector"
attr unit  ""
vector 551  CAIN.ueD2DTx[10].nic.phy  servingCell:vector  ETV
attr source  servingCell
attr title  "ID of the serving eNodeB for the UE, vector"
attr unit  ""
vector 583  CAIN.ueD2DTx[11].nic.phy  servingCell:vector  ETV
attr source  servingCell
attr title  "ID of the serving eNodeB for the UE, vector"
attr unit  ""
vector 615  CAIN.ueD2DTx[12].nic.phy  servingCell:vector  ETV
attr source  servingCell
attr title  "ID of the serving eNodeB for the UE, vector"
attr unit  ""
vector 647  CAIN.ueD2DTx[13].nic.phy  servingCell:vector  ETV
attr source  servingCell
attr title  "ID of the serving eNodeB for the UE, vector"
attr unit  ""
vector 679  CAIN.ueD2DTx[14].nic.phy  servingCell:vector  ETV
attr source  servingCell
attr title  "ID of the serving eNodeB for the UE, vector"
attr unit  ""
vector 711  CAIN.ueD2DTx[15].nic.phy  servingCell:vector  ETV
attr source  servingCell
attr title  "ID of the serving eNodeB for the UE, vector"
attr unit  ""
vector 743  CAIN.ueD2DTx[16].nic.phy  servingCell:vector  ETV
attr source  servingCell
attr title  "ID of the serving eNodeB for the UE, vector"
attr unit  ""
vector 775  CAIN.ueD2DTx[17].nic.phy  servingCell:vector  ETV
attr source  servingCell
attr title  "ID of the serving eNodeB for the UE, vector"
attr unit  ""
vector 807  CAIN.ueD2DTx[18].nic.phy  servingCell:vector  ETV
attr source  servingCell
attr title  "ID of the serving eNodeB for the UE, vector"
attr unit  ""
vector 839  CAIN.ueD2DTx[19].nic.phy  servingCell:vector  ETV
attr source  servingCell
attr title  "ID of the serving eNodeB for the UE, vector"
attr unit  ""
vector 863  CAIN.eNodeB.sctp  "Throughput of Association 3"  ETV
vector 885  CAIN.eNodeB1.sctp  "Throughput of Association 4"  ETV
vector 907  CAIN.eNodeB.sctp  "Throughput of Association 1"  ETV
vector 927  CAIN.eNodeB.sctp  "Fast Recovery State 1:10.0.5.2"  ETV
vector 956  CAIN.eNodeB1.sctp  "Throughput of Association 2"  ETV
vector 976  CAIN.eNodeB1.sctp  "Fast Recovery State 2:10.0.5.1"  ETV
vector 128  CAIN.eNodeB.x2ppp[0].queue  rcvdPk:vector(packetBytes)  ETV
attr interpolationmode  none
attr title  "received packets, vector(packetBytes)"
vector 130  CAIN.eNodeB.x2ppp[0].queue  queueingTime:vector  ETV
attr interpolationmode  none
attr title  "queueing time, vector"
vector 186  CAIN.eNodeB1.x2ppp[0].queue  rcvdPk:vector(packetBytes)  ETV
attr interpolationmode  none
attr title  "received packets, vector(packetBytes)"
vector 188  CAIN.eNodeB1.x2ppp[0].queue  queueingTime:vector  ETV
attr interpolationmode  none
attr title  "queueing time, vector"
vector 137  CAIN.eNodeB.x2ppp[0].ppp  rcvdPkFromHL:vector(packetBytes)  ETV
attr interpolationmode  none
attr source  packetReceivedFromUpper
attr title  "packets received from higher layer, vector(packetBytes)"
vector 133  CAIN.eNodeB.x2ppp[0].ppp  txPk:vector(packetBytes)  ETV
attr interpolationmode  none
attr source  packetSentToLower
attr title  "packets transmitted, vector(packetBytes)"
vector 195  CAIN.eNodeB1.x2ppp[0].ppp  rcvdPkFromHL:vector(packetBytes)  ETV
attr interpolationmode  none
attr source  packetReceivedFromUpper
attr title  "packets received from higher layer, vector(packetBytes)"
vector 191  CAIN.eNodeB1.x2ppp[0].ppp  txPk:vector(packetBytes)  ETV
attr interpolationmode  none
attr source  packetSentToLower
attr title  "packets transmitted, vector(packetBytes)"
vector 192  CAIN.eNodeB1.x2ppp[0].ppp  rxPkOk:vector(packetBytes)  ETV
attr interpolationmode  none
attr source  rxPkOk
attr title  "packets received OK, vector(packetBytes)"
vector 196  CAIN.eNodeB1.x2ppp[0].ppp  passedUpPk:vector(packetBytes)  ETV
attr interpolationmode  none
attr source  packetSentToUpper
attr title  "packets passed to higher layer, vector(packetBytes)"
vector 134  CAIN.eNodeB.x2ppp[0].ppp  rxPkOk:vector(packetBytes)  ETV
attr interpolationmode  none
attr source  rxPkOk
attr title  "packets received OK, vector(packetBytes)"
vector 138  CAIN.eNodeB.x2ppp[0].ppp  passedUpPk:vector(packetBytes)  ETV
attr interpolationmode  none
attr source  packetSentToUpper
attr title  "packets passed to higher layer, vector(packetBytes)"
vector 1005  CAIN.eNodeB1.sctp  "Throughput of Association 4"  ETV
vector 882  CAIN.eNodeB1.sctp  "Peer Rwnd 4"  ETV
vector 1025  CAIN.eNodeB1.sctp  "Fast Recovery State 5:10.0.4.1"  ETV
vector 1052  CAIN.eNodeB1.sctp  "Fast Recovery State 5:10.0.2.2"  ETV
vector 1079  CAIN.eNodeB1.sctp  "Fast Recovery State 5:10.0.5.1"  ETV
vector 1108  CAIN.eNodeB.sctp  "Throughput of Association 3"  ETV
vector 860  CAIN.eNodeB.sctp  "Peer Rwnd 3"  ETV
vector 1128  CAIN.eNodeB.sctp  "Fast Recovery State 6:10.0.4.2"  ETV
vector 1155  CAIN.eNodeB.sctp  "Fast Recovery State 6:10.0.3.2"  ETV
vector 1182  CAIN.eNodeB.sctp  "Fast Recovery State 6:10.0.5.2"  ETV
vector 904  CAIN.eNodeB.sctp  "Peer Rwnd 1"  ETV
vector 1209  CAIN.eNodeB.sctp  "Fast Recovery State 1:10.0.4.2"  ETV
vector 1236  CAIN.eNodeB.sctp  "Fast Recovery State 1:10.0.3.2"  ETV
vector 953  CAIN.eNodeB1.sctp  "Peer Rwnd 2"  ETV
vector 1263  CAIN.eNodeB1.sctp  "Fast Recovery State 2:10.0.4.1"  ETV
vector 1290  CAIN.eNodeB1.sctp  "Fast Recovery State 2:10.0.2.2"  ETV
vector 1035  CAIN.eNodeB1.sctp  "Slow Start Threshold 5:10.0.2.2"  ETV
vector 1036  CAIN.eNodeB1.sctp  "Congestion Window 5:10.0.2.2"  ETV
vector 1037  CAIN.eNodeB1.sctp  "Bandwidth 5:10.0.2.2"  ETV
vector 1040  CAIN.eNodeB1.sctp  "HB Sent 5:10.0.2.2"  ETV
vector 1033  CAIN.eNodeB1.sctp  "RTO 5:10.0.2.2"  ETV
vector 1008  CAIN.eNodeB1.sctp  "Slow Start Threshold 5:10.0.4.1"  ETV
vector 1009  CAIN.eNodeB1.sctp  "Congestion Window 5:10.0.4.1"  ETV
vector 1010  CAIN.eNodeB1.sctp  "Bandwidth 5:10.0.4.1"  ETV
vector 1013  CAIN.eNodeB1.sctp  "HB Sent 5:10.0.4.1"  ETV
vector 1006  CAIN.eNodeB1.sctp  "RTO 5:10.0.4.1"  ETV
vector 1062  CAIN.eNodeB1.sctp  "Slow Start Threshold 5:10.0.5.1"  ETV
vector 1063  CAIN.eNodeB1.sctp  "Congestion Window 5:10.0.5.1"  ETV
vector 1064  CAIN.eNodeB1.sctp  "Bandwidth 5:10.0.5.1"  ETV
vector 1060  CAIN.eNodeB1.sctp  "RTO 5:10.0.5.1"  ETV
vector 1138  CAIN.eNodeB.sctp  "Slow Start Threshold 6:10.0.3.2"  ETV
vector 1139  CAIN.eNodeB.sctp  "Congestion Window 6:10.0.3.2"  ETV
vector 1140  CAIN.eNodeB.sctp  "Bandwidth 6:10.0.3.2"  ETV
vector 1143  CAIN.eNodeB.sctp  "HB Sent 6:10.0.3.2"  ETV
vector 1136  CAIN.eNodeB.sctp  "RTO 6:10.0.3.2"  ETV
vector 1111  CAIN.eNodeB.sctp  "Slow Start Threshold 6:10.0.4.2"  ETV
vector 1112  CAIN.eNodeB.sctp  "Congestion Window 6:10.0.4.2"  ETV
vector 1113  CAIN.eNodeB.sctp  "Bandwidth 6:10.0.4.2"  ETV
vector 1116  CAIN.eNodeB.sctp  "HB Sent 6:10.0.4.2"  ETV
vector 1109  CAIN.eNodeB.sctp  "RTO 6:10.0.4.2"  ETV
vector 1165  CAIN.eNodeB.sctp  "Slow Start Threshold 6:10.0.5.2"  ETV
vector 1166  CAIN.eNodeB.sctp  "Congestion Window 6:10.0.5.2"  ETV
vector 1167  CAIN.eNodeB.sctp  "Bandwidth 6:10.0.5.2"  ETV
vector 1163  CAIN.eNodeB.sctp  "RTO 6:10.0.5.2"  ETV
vector 916  CAIN.eNodeB.sctp  "HB ACK Sent 1:10.0.5.2"  ETV
vector 917  CAIN.eNodeB.sctp  "HB Received 1:10.0.5.2"  ETV
vector 965  CAIN.eNodeB1.sctp  "HB ACK Sent 2:10.0.5.1"  ETV
vector 966  CAIN.eNodeB1.sctp  "HB Received 2:10.0.5.1"  ETV
vector 1219  CAIN.eNodeB.sctp  "Slow Start Threshold 1:10.0.3.2"  ETV
vector 1220  CAIN.eNodeB.sctp  "Congestion Window 1:10.0.3.2"  ETV
vector 1221  CAIN.eNodeB.sctp  "Bandwidth 1:10.0.3.2"  ETV
vector 1224  CAIN.eNodeB.sctp  "HB Sent 1:10.0.3.2"  ETV
vector 1217  CAIN.eNodeB.sctp  "RTO 1:10.0.3.2"  ETV
vector 1192  CAIN.eNodeB.sctp  "Slow Start Threshold 1:10.0.4.2"  ETV
vector 1193  CAIN.eNodeB.sctp  "Congestion Window 1:10.0.4.2"  ETV
vector 1194  CAIN.eNodeB.sctp  "Bandwidth 1:10.0.4.2"  ETV
vector 1197  CAIN.eNodeB.sctp  "HB Sent 1:10.0.4.2"  ETV
vector 1190  CAIN.eNodeB.sctp  "RTO 1:10.0.4.2"  ETV
vector 910  CAIN.eNodeB.sctp  "Slow Start Threshold 1:10.0.5.2"  ETV
vector 911  CAIN.eNodeB.sctp  "Congestion Window 1:10.0.5.2"  ETV
vector 912  CAIN.eNodeB.sctp  "Bandwidth 1:10.0.5.2"  ETV
vector 908  CAIN.eNodeB.sctp  "RTO 1:10.0.5.2"  ETV
vector 1273  CAIN.eNodeB1.sctp  "Slow Start Threshold 2:10.0.2.2"  ETV
vector 1274  CAIN.eNodeB1.sctp  "Congestion Window 2:10.0.2.2"  ETV
vector 1275  CAIN.eNodeB1.sctp  "Bandwidth 2:10.0.2.2"  ETV
vector 1278  CAIN.eNodeB1.sctp  "HB Sent 2:10.0.2.2"  ETV
vector 1271  CAIN.eNodeB1.sctp  "RTO 2:10.0.2.2"  ETV
vector 1246  CAIN.eNodeB1.sctp  "Slow Start Threshold 2:10.0.4.1"  ETV
vector 1247  CAIN.eNodeB1.sctp  "Congestion Window 2:10.0.4.1"  ETV
vector 1248  CAIN.eNodeB1.sctp  "Bandwidth 2:10.0.4.1"  ETV
vector 1251  CAIN.eNodeB1.sctp  "HB Sent 2:10.0.4.1"  ETV
vector 1244  CAIN.eNodeB1.sctp  "RTO 2:10.0.4.1"  ETV
vector 959  CAIN.eNodeB1.sctp  "Slow Start Threshold 2:10.0.5.1"  ETV
vector 960  CAIN.eNodeB1.sctp  "Congestion Window 2:10.0.5.1"  ETV
vector 961  CAIN.eNodeB1.sctp  "Bandwidth 2:10.0.5.1"  ETV
vector 957  CAIN.eNodeB1.sctp  "RTO 2:10.0.5.1"  ETV
vector 1173  CAIN.eNodeB.sctp  "HB ACK Received 6:10.0.5.2"  ETV
vector 1164  CAIN.eNodeB.sctp  "RTT 6:10.0.5.2"  ETV
vector 1070  CAIN.eNodeB1.sctp  "HB ACK Received 5:10.0.5.1"  ETV
vector 1061  CAIN.eNodeB1.sctp  "RTT 5:10.0.5.1"  ETV
vector 1171  CAIN.eNodeB.sctp  "HB ACK Sent 6:10.0.5.2"  ETV
vector 1172  CAIN.eNodeB.sctp  "HB Received 6:10.0.5.2"  ETV
vector 1068  CAIN.eNodeB1.sctp  "HB ACK Sent 5:10.0.5.1"  ETV
vector 1069  CAIN.eNodeB1.sctp  "HB Received 5:10.0.5.1"  ETV
vector 967  CAIN.eNodeB1.sctp  "HB ACK Received 2:10.0.5.1"  ETV
vector 958  CAIN.eNodeB1.sctp  "RTT 2:10.0.5.1"  ETV
vector 918  CAIN.eNodeB.sctp  "HB ACK Received 1:10.0.5.2"  ETV
vector 909  CAIN.eNodeB.sctp  "RTT 1:10.0.5.2"  ETV
vector 96  CAIN.eNodeB.nic.mac  receivedPacketFromLowerLayer:vector(packetBytes)  ETV
attr interpolationmode  none
attr source  receivedPacketFromLowerLayer
vector 1305  CAIN.eNodeB.sctp  "SendQueue of Association 6"  ETV
vector 1168  CAIN.eNodeB.sctp  "TSN Sent 6:10.0.5.2"  ETV
vector 1175  CAIN.eNodeB.sctp  "Outstanding Bytes 6:10.0.5.2"  ETV
vector 848  CAIN.eNodeB.sctp  "Outstanding Bytes 3:Total"  ETV
vector 1174  CAIN.eNodeB.sctp  "Queued Sent Bytes 6:10.0.5.2"  ETV
vector 847  CAIN.eNodeB.sctp  "Queued Sent Bytes 3:Total"  ETV
vector 963  CAIN.eNodeB1.sctp  "TSN Received 2:10.0.5.1"  ETV
vector 939  CAIN.eNodeB1.sctp  "Queued Received Bytes 2:Total"  ETV
vector 935  CAIN.eNodeB1.sctp  "Advertised Receiver Window 2"  ETV
vector 944  CAIN.eNodeB1.sctp  "Number of Total Gap Blocks Stored 2"  ETV
vector 945  CAIN.eNodeB1.sctp  "Number of Revokable Gap Blocks Stored 2"  ETV
vector 946  CAIN.eNodeB1.sctp  "Number of Non-Revokable Gap Blocks Stored 2"  ETV
vector 947  CAIN.eNodeB1.sctp  "Number of Duplicate TSNs Stored 2"  ETV
vector 951  CAIN.eNodeB1.sctp  "Length of SACK Sent 2"  ETV
vector 948  CAIN.eNodeB1.sctp  "Number of Revokable Gap Blocks Sent 2"  ETV
vector 949  CAIN.eNodeB1.sctp  "Number of Non-Revokable Gap Blocks Sent 2"  ETV
vector 950  CAIN.eNodeB1.sctp  "Number of Duplicate TSNs Sent 2"  ETV
vector 955  CAIN.eNodeB1.sctp  "End to End Delay of Association 2"  ETV
vector 199  CAIN.eNodeB1.x2App[0].client  rcvdPk:vector(packetBytes)  ETV
attr interpolationmode  none
attr source  rcvdPk
attr title  "packets received, vector(packetBytes)"
vector 1304  CAIN.eNodeB.sctp  "Number of Gap Blocks in Last SACK of Association 6"  ETV
vector 849  CAIN.eNodeB.sctp  "Number of Revokable Gap Blocks in SACK 3"  ETV
vector 850  CAIN.eNodeB.sctp  "Number of Non-Revokable Gap Blocks in SACK 3"  ETV
vector 1185  CAIN.eNodeB.sctp  "TSN Acked CumAck 6:10.0.5.2"  ETV
vector 1151  CAIN.eNodeB.sctp  "Number of Gap Acked Chunks in Last SACK 6:10.0.3.2"  ETV
vector 1152  CAIN.eNodeB.sctp  "Number of Non-Revokable Gap Acked Chunks in Last SACK 6:10.0.3.2"  ETV
vector 1153  CAIN.eNodeB.sctp  "Number of Gap Missed Chunks in Last SACK 6:10.0.3.2"  ETV
vector 1124  CAIN.eNodeB.sctp  "Number of Gap Acked Chunks in Last SACK 6:10.0.4.2"  ETV
vector 1125  CAIN.eNodeB.sctp  "Number of Non-Revokable Gap Acked Chunks in Last SACK 6:10.0.4.2"  ETV
vector 1126  CAIN.eNodeB.sctp  "Number of Gap Missed Chunks in Last SACK 6:10.0.4.2"  ETV
vector 1178  CAIN.eNodeB.sctp  "Number of Gap Acked Chunks in Last SACK 6:10.0.5.2"  ETV
vector 1179  CAIN.eNodeB.sctp  "Number of Non-Revokable Gap Acked Chunks in Last SACK 6:10.0.5.2"  ETV
vector 1180  CAIN.eNodeB.sctp  "Number of Gap Missed Chunks in Last SACK 6:10.0.5.2"  ETV
vector 859  CAIN.eNodeB.sctp  "Arwnd in Last SACK 3"  ETV
vector 1187  CAIN.eNodeB.sctp  "TSN PseudoCumAck 6:10.0.5.2"  ETV
vector 1188  CAIN.eNodeB.sctp  "TSN RTXPseudoCumAck 6:10.0.5.2"  ETV
vector 1181  CAIN.eNodeB.sctp  "Partial Bytes Acked 6:10.0.5.2"  ETV
vector 1333  CAIN.ueD2DTx[13].tcp  tcpRcvQueueBytes  ETV
vector 1320  CAIN.ueD2DTx[13].tcp  "advertised window"  ETV
vector 1319  CAIN.ueD2DTx[13].tcp  "receive window"  ETV
vector 1322  CAIN.ueD2DTx[13].tcp  "sent ack"  ETV
vector 621  CAIN.ueD2DTx[13].nic.pdcpRrc  receivedPacketFromUpperLayer:vector(packetBytes)  ETV
attr interpolationmode  none
attr source  receivedPacketFromUpperLayer
vector 624  CAIN.ueD2DTx[13].nic.pdcpRrc  sentPacketToLowerLayer:vector(packetBytes)  ETV
attr interpolationmode  none
attr source  sentPacketToLowerLayer
vector 625  CAIN.ueD2DTx[13].nic.mac  receivedPacketFromUpperLayer:vector(packetBytes)  ETV
attr interpolationmode  none
attr source  receivedPacketFromUpperLayer
vector 634  CAIN.ueD2DTx[13].nic.mac  CainMessageSent:vector  ETV
attr interpolationmode  none
attr title  "# of Sent CAIN message, vector"
vector 628  CAIN.ueD2DTx[13].nic.mac  sentPacketToLowerLayer:vector(packetBytes)  ETV
attr interpolationmode  none
attr source  sentPacketToLowerLayer
vector 1357  CAIN.ueD2DTx[19].tcp  tcpRcvQueueBytes  ETV
vector 1344  CAIN.ueD2DTx[19].tcp  "advertised window"  ETV
vector 1343  CAIN.ueD2DTx[19].tcp  "receive window"  ETV
vector 1346  CAIN.ueD2DTx[19].tcp  "sent ack"  ETV
vector 813  CAIN.ueD2DTx[19].nic.pdcpRrc  receivedPacketFromUpperLayer:vector(packetBytes)  ETV
attr interpolationmode  none
attr source  receivedPacketFromUpperLayer
vector 816  CAIN.ueD2DTx[19].nic.pdcpRrc  sentPacketToLowerLayer:vector(packetBytes)  ETV
attr interpolationmode  none
attr source  sentPacketToLowerLayer
vector 817  CAIN.ueD2DTx[19].nic.mac  receivedPacketFromUpperLayer:vector(packetBytes)  ETV
attr interpolationmode  none
attr source  receivedPacketFromUpperLayer
vector 1381  CAIN.ueD2DTx[12].tcp  tcpRcvQueueBytes  ETV
vector 1368  CAIN.ueD2DTx[12].tcp  "advertised window"  ETV
vector 1367  CAIN.ueD2DTx[12].tcp  "receive window"  ETV
vector 1370  CAIN.ueD2DTx[12].tcp  "sent ack"  ETV
vector 589  CAIN.ueD2DTx[12].nic.pdcpRrc  receivedPacketFromUpperLayer:vector(packetBytes)  ETV
attr interpolationmode  none
attr source  receivedPacketFromUpperLayer
vector 592  CAIN.ueD2DTx[12].nic.pdcpRrc  sentPacketToLowerLayer:vector(packetBytes)  ETV
attr interpolationmode  none
attr source  sentPacketToLowerLayer
vector 593  CAIN.ueD2DTx[12].nic.mac  receivedPacketFromUpperLayer:vector(packetBytes)  ETV
attr interpolationmode  none
attr source  receivedPacketFromUpperLayer
vector 603  CAIN.ueD2DTx[12].nic.mac  CainHopMessageSent:vector  ETV
attr interpolationmode  none
attr title  "# of Sent CAIN hop message, vector"
vector 596  CAIN.ueD2DTx[12].nic.mac  sentPacketToLowerLayer:vector(packetBytes)  ETV
attr interpolationmode  none
attr source  sentPacketToLowerLayer
vector 820  CAIN.ueD2DTx[19].nic.mac  sentPacketToLowerLayer:vector(packetBytes)  ETV
attr interpolationmode  none
attr source  sentPacketToLowerLayer
vector 530  CAIN.ueD2DTx[10].nic.mac  receivedPacketFromLowerLayer:vector(packetBytes)  ETV
attr interpolationmode  none
attr source  receivedPacketFromLowerLayer
vector 532  CAIN.ueD2DTx[10].nic.mac  sentPacketToLowerLayer:vector(packetBytes)  ETV
attr interpolationmode  none
attr source  sentPacketToLowerLayer
vector 338  CAIN.ueD2DTx[4].nic.mac  receivedPacketFromLowerLayer:vector(packetBytes)  ETV
attr interpolationmode  none
attr source  receivedPacketFromLowerLayer
vector 340  CAIN.ueD2DTx[4].nic.mac  sentPacketToLowerLayer:vector(packetBytes)  ETV
attr interpolationmode  none
attr source  sentPacketToLowerLayer
vector 111  CAIN.eNodeB.nic.mac  racpkt:vector  ETV
attr interpolationmode  none
attr title  "eNB received racpkt message, vector"
vector 112  CAIN.eNodeB.nic.mac  racDistanceSignal:vector  ETV
attr interpolationmode  none
attr title  "Rac distance to enb, vector"
vector 113  CAIN.eNodeB.nic.mac  racServedDevsSignal:vector  ETV
attr interpolationmode  none
attr title  "# of devices served on rac arriavall, vector"
vector 98  CAIN.eNodeB.nic.mac  sentPacketToLowerLayer:vector(packetBytes)  ETV
attr interpolationmode  none
attr source  sentPacketToLowerLayer
vector 106  CAIN.eNodeB.nic.mac  DistanceSignal:vector  ETV
attr interpolationmode  none
attr title  "Distance to enb, vector"
vector 100  CAIN.eNodeB.nic.mac  CainMessage:vector  ETV
attr interpolationmode  none
attr title  "eNB received CAIN message, vector"
vector 690  CAIN.ueD2DTx[15].nic.mac  receivedPacketFromLowerLayer:vector(packetBytes)  ETV
attr interpolationmode  none
attr source  receivedPacketFromLowerLayer
vector 692  CAIN.ueD2DTx[15].nic.mac  sentPacketToLowerLayer:vector(packetBytes)  ETV
attr interpolationmode  none
attr source  sentPacketToLowerLayer
vector 818  CAIN.ueD2DTx[19].nic.mac  receivedPacketFromLowerLayer:vector(packetBytes)  ETV
attr interpolationmode  none
attr source  receivedPacketFromLowerLayer
vector 536  CAIN.ueD2DTx[10].nic.mac  DropedCainMessage:vector  ETV
attr interpolationmode  none
attr title  "Droped CAIN message due to RB not available, vector"
vector 101  CAIN.eNodeB.nic.mac  CainHopMessage:vector  ETV
attr interpolationmode  none
attr title  "eNB received CAIN hop message, vector"
vector 697  CAIN.ueD2DTx[15].nic.mac  DropedHopMessage:vector  ETV
attr interpolationmode  none
attr title  "Droped Hop CAIN message due to RB not available, vector"
vector 115  CAIN.eNodeB.nic.phy  averageCqiUlvect:vector  ETV
attr source  averageCqiUlvect
attr title  "Average Cqi reported in UL, vector"
attr unit  cqi
vector 1405  CAIN.ueD2DTx[11].tcp  tcpRcvQueueBytes  ETV
vector 1392  CAIN.ueD2DTx[11].tcp  "advertised window"  ETV
vector 1391  CAIN.ueD2DTx[11].tcp  "receive window"  ETV
vector 1394  CAIN.ueD2DTx[11].tcp  "sent ack"  ETV
vector 557  CAIN.ueD2DTx[11].nic.pdcpRrc  receivedPacketFromUpperLayer:vector(packetBytes)  ETV
attr interpolationmode  none
attr source  receivedPacketFromUpperLayer
vector 560  CAIN.ueD2DTx[11].nic.pdcpRrc  sentPacketToLowerLayer:vector(packetBytes)  ETV
attr interpolationmode  none
attr source  sentPacketToLowerLayer
vector 561  CAIN.ueD2DTx[11].nic.mac  receivedPacketFromUpperLayer:vector(packetBytes)  ETV
attr interpolationmode  none
attr source  receivedPacketFromUpperLayer
vector 564  CAIN.ueD2DTx[11].nic.mac  sentPacketToLowerLayer:vector(packetBytes)  ETV
attr interpolationmode  none
attr source  sentPacketToLowerLayer
vector 562  CAIN.ueD2DTx[11].nic.mac  receivedPacketFromLowerLayer:vector(packetBytes)  ETV
attr interpolationmode  none
attr source  receivedPacketFromLowerLayer
vector 1429  CAIN.ueD2DTx[7].tcp  tcpRcvQueueBytes  ETV
vector 1416  CAIN.ueD2DTx[7].tcp  "advertised window"  ETV
vector 1415  CAIN.ueD2DTx[7].tcp  "receive window"  ETV
vector 1418  CAIN.ueD2DTx[7].tcp  "sent ack"  ETV
vector 429  CAIN.ueD2DTx[7].nic.pdcpRrc  receivedPacketFromUpperLayer:vector(packetBytes)  ETV
attr interpolationmode  none
attr source  receivedPacketFromUpperLayer
vector 432  CAIN.ueD2DTx[7].nic.pdcpRrc  sentPacketToLowerLayer:vector(packetBytes)  ETV
attr interpolationmode  none
attr source  sentPacketToLowerLayer
vector 433  CAIN.ueD2DTx[7].nic.mac  receivedPacketFromUpperLayer:vector(packetBytes)  ETV
attr interpolationmode  none
attr source  receivedPacketFromUpperLayer
vector 436  CAIN.ueD2DTx[7].nic.mac  sentPacketToLowerLayer:vector(packetBytes)  ETV
attr interpolationmode  none
attr source  sentPacketToLowerLayer
vector 1453  CAIN.ueD2DTx[6].tcp  tcpRcvQueueBytes  ETV
vector 1440  CAIN.ueD2DTx[6].tcp  "advertised window"  ETV
vector 1439  CAIN.ueD2DTx[6].tcp  "receive window"  ETV
vector 1442  CAIN.ueD2DTx[6].tcp  "sent ack"  ETV
vector 397  CAIN.ueD2DTx[6].nic.pdcpRrc  receivedPacketFromUpperLayer:vector(packetBytes)  ETV
attr interpolationmode  none
attr source  receivedPacketFromUpperLayer
vector 400  CAIN.ueD2DTx[6].nic.pdcpRrc  sentPacketToLowerLayer:vector(packetBytes)  ETV
attr interpolationmode  none
attr source  sentPacketToLowerLayer
vector 401  CAIN.ueD2DTx[6].nic.mac  receivedPacketFromUpperLayer:vector(packetBytes)  ETV
attr interpolationmode  none
attr source  receivedPacketFromUpperLayer
vector 411  CAIN.ueD2DTx[6].nic.mac  CainHopMessageSent:vector  ETV
attr interpolationmode  none
attr title  "# of Sent CAIN hop message, vector"
vector 404  CAIN.ueD2DTx[6].nic.mac  sentPacketToLowerLayer:vector(packetBytes)  ETV
attr interpolationmode  none
attr source  sentPacketToLowerLayer
vector 563  CAIN.ueD2DTx[11].nic.mac  sentPacketToUpperLayer:vector(packetBytes)  ETV
attr interpolationmode  none
attr source  sentPacketToUpperLayer
vector 434  CAIN.ueD2DTx[7].nic.mac  receivedPacketFromLowerLayer:vector(packetBytes)  ETV
attr interpolationmode  none
attr source  receivedPacketFromLowerLayer
vector 498  CAIN.ueD2DTx[9].nic.mac  receivedPacketFromLowerLayer:vector(packetBytes)  ETV
attr interpolationmode  none
attr source  receivedPacketFromLowerLayer
vector 500  CAIN.ueD2DTx[9].nic.mac  sentPacketToLowerLayer:vector(packetBytes)  ETV
attr interpolationmode  none
attr source  sentPacketToLowerLayer
vector 435  CAIN.ueD2DTx[7].nic.mac  sentPacketToUpperLayer:vector(packetBytes)  ETV
attr interpolationmode  none
attr source  sentPacketToUpperLayer
vector 505  CAIN.ueD2DTx[9].nic.mac  DropedHopMessage:vector  ETV
attr interpolationmode  none
attr title  "Droped Hop CAIN message due to RB not available, vector"
vector 1477  CAIN.ueD2DTx[2].tcp  tcpRcvQueueBytes  ETV
vector 1464  CAIN.ueD2DTx[2].tcp  "advertised window"  ETV
vector 1463  CAIN.ueD2DTx[2].tcp  "receive window"  ETV
vector 1466  CAIN.ueD2DTx[2].tcp  "sent ack"  ETV
vector 269  CAIN.ueD2DTx[2].nic.pdcpRrc  receivedPacketFromUpperLayer:vector(packetBytes)  ETV
attr interpolationmode  none
attr source  receivedPacketFromUpperLayer
vector 272  CAIN.ueD2DTx[2].nic.pdcpRrc  sentPacketToLowerLayer:vector(packetBytes)  ETV
attr interpolationmode  none
attr source  sentPacketToLowerLayer
vector 273  CAIN.ueD2DTx[2].nic.mac  receivedPacketFromUpperLayer:vector(packetBytes)  ETV
attr interpolationmode  none
attr source  receivedPacketFromUpperLayer
vector 283  CAIN.ueD2DTx[2].nic.mac  CainHopMessageSent:vector  ETV
attr interpolationmode  none
attr title  "# of Sent CAIN hop message, vector"
vector 276  CAIN.ueD2DTx[2].nic.mac  sentPacketToLowerLayer:vector(packetBytes)  ETV
attr interpolationmode  none
attr source  sentPacketToLowerLayer
vector 1501  CAIN.ueD2DTx[10].tcp  tcpRcvQueueBytes  ETV
vector 1488  CAIN.ueD2DTx[10].tcp  "advertised window"  ETV
vector 1487  CAIN.ueD2DTx[10].tcp  "receive window"  ETV
vector 1490  CAIN.ueD2DTx[10].tcp  "sent ack"  ETV
vector 525  CAIN.ueD2DTx[10].nic.pdcpRrc  receivedPacketFromUpperLayer:vector(packetBytes)  ETV
attr interpolationmode  none
attr source  receivedPacketFromUpperLayer
vector 528  CAIN.ueD2DTx[10].nic.pdcpRrc  sentPacketToLowerLayer:vector(packetBytes)  ETV
attr interpolationmode  none
attr source  sentPacketToLowerLayer
vector 529  CAIN.ueD2DTx[10].nic.mac  receivedPacketFromUpperLayer:vector(packetBytes)  ETV
attr interpolationmode  none
attr source  receivedPacketFromUpperLayer
vector 1525  CAIN.ueD2DTx[14].tcp  tcpRcvQueueBytes  ETV
vector 1512  CAIN.ueD2DTx[14].tcp  "advertised window"  ETV
vector 1511  CAIN.ueD2DTx[14].tcp  "receive window"  ETV
vector 1514  CAIN.ueD2DTx[14].tcp  "sent ack"  ETV
vector 653  CAIN.ueD2DTx[14].nic.pdcpRrc  receivedPacketFromUpperLayer:vector(packetBytes)  ETV
attr interpolationmode  none
attr source  receivedPacketFromUpperLayer
vector 656  CAIN.ueD2DTx[14].nic.pdcpRrc  sentPacketToLowerLayer:vector(packetBytes)  ETV
attr interpolationmode  none
attr source  sentPacketToLowerLayer
vector 657  CAIN.ueD2DTx[14].nic.mac  receivedPacketFromUpperLayer:vector(packetBytes)  ETV
attr interpolationmode  none
attr source  receivedPacketFromUpperLayer
vector 667  CAIN.ueD2DTx[14].nic.mac  CainHopMessageSent:vector  ETV
attr interpolationmode  none
attr title  "# of Sent CAIN hop message, vector"
vector 660  CAIN.ueD2DTx[14].nic.mac  sentPacketToLowerLayer:vector(packetBytes)  ETV
attr interpolationmode  none
attr source  sentPacketToLowerLayer
vector 402  CAIN.ueD2DTx[6].nic.mac  receivedPacketFromLowerLayer:vector(packetBytes)  ETV
attr interpolationmode  none
attr source  receivedPacketFromLowerLayer
vector 1549  CAIN.ueD2DTx[4].tcp  tcpRcvQueueBytes  ETV
vector 1536  CAIN.ueD2DTx[4].tcp  "advertised window"  ETV
vector 1535  CAIN.ueD2DTx[4].tcp  "receive window"  ETV
vector 1538  CAIN.ueD2DTx[4].tcp  "sent ack"  ETV
vector 333  CAIN.ueD2DTx[4].nic.pdcpRrc  receivedPacketFromUpperLayer:vector(packetBytes)  ETV
attr interpolationmode  none
attr source  receivedPacketFromUpperLayer
vector 336  CAIN.ueD2DTx[4].nic.pdcpRrc  sentPacketToLowerLayer:vector(packetBytes)  ETV
attr interpolationmode  none
attr source  sentPacketToLowerLayer
vector 337  CAIN.ueD2DTx[4].nic.mac  receivedPacketFromUpperLayer:vector(packetBytes)  ETV
attr interpolationmode  none
attr source  receivedPacketFromUpperLayer
vector 346  CAIN.ueD2DTx[4].nic.mac  CainMessageSent:vector  ETV
attr interpolationmode  none
attr title  "# of Sent CAIN message, vector"
vector 531  CAIN.ueD2DTx[10].nic.mac  sentPacketToUpperLayer:vector(packetBytes)  ETV
attr interpolationmode  none
attr source  sentPacketToUpperLayer
vector 696  CAIN.ueD2DTx[15].nic.mac  DropedCainMessage:vector  ETV
attr interpolationmode  none
attr title  "Droped CAIN message due to RB not available, vector"
vector 108  CAIN.eNodeB.nic.mac  ServedDevs:vector  ETV
attr interpolationmode  none
attr title  "# of devices served on cain forwarding, vector"
vector 1573  CAIN.ueD2DTx[8].tcp  tcpRcvQueueBytes  ETV
vector 1560  CAIN.ueD2DTx[8].tcp  "advertised window"  ETV
vector 1559  CAIN.ueD2DTx[8].tcp  "receive window"  ETV
vector 1562  CAIN.ueD2DTx[8].tcp  "sent ack"  ETV
vector 461  CAIN.ueD2DTx[8].nic.pdcpRrc  receivedPacketFromUpperLayer:vector(packetBytes)  ETV
attr interpolationmode  none
attr source  receivedPacketFromUpperLayer
vector 464  CAIN.ueD2DTx[8].nic.pdcpRrc  sentPacketToLowerLayer:vector(packetBytes)  ETV
attr interpolationmode  none
attr source  sentPacketToLowerLayer
vector 465  CAIN.ueD2DTx[8].nic.mac  receivedPacketFromUpperLayer:vector(packetBytes)  ETV
attr interpolationmode  none
attr source  receivedPacketFromUpperLayer
vector 475  CAIN.ueD2DTx[8].nic.mac  CainHopMessageSent:vector  ETV
attr interpolationmode  none
attr title  "# of Sent CAIN hop message, vector"
vector 468  CAIN.ueD2DTx[8].nic.mac  sentPacketToLowerLayer:vector(packetBytes)  ETV
attr interpolationmode  none
attr source  sentPacketToLowerLayer
vector 1597  CAIN.ueD2DTx[9].tcp  tcpRcvQueueBytes  ETV
vector 1584  CAIN.ueD2DTx[9].tcp  "advertised window"  ETV
vector 1583  CAIN.ueD2DTx[9].tcp  "receive window"  ETV
vector 1586  CAIN.ueD2DTx[9].tcp  "sent ack"  ETV
vector 493  CAIN.ueD2DTx[9].nic.pdcpRrc  receivedPacketFromUpperLayer:vector(packetBytes)  ETV
attr interpolationmode  none
attr source  receivedPacketFromUpperLayer
vector 496  CAIN.ueD2DTx[9].nic.pdcpRrc  sentPacketToLowerLayer:vector(packetBytes)  ETV
attr interpolationmode  none
attr source  sentPacketToLowerLayer
vector 497  CAIN.ueD2DTx[9].nic.mac  receivedPacketFromUpperLayer:vector(packetBytes)  ETV
attr interpolationmode  none
attr source  receivedPacketFromUpperLayer
vector 1621  CAIN.ueD2DTx[15].tcp  tcpRcvQueueBytes  ETV
vector 1608  CAIN.ueD2DTx[15].tcp  "advertised window"  ETV
vector 1607  CAIN.ueD2DTx[15].tcp  "receive window"  ETV
vector 1610  CAIN.ueD2DTx[15].tcp  "sent ack"  ETV
vector 685  CAIN.ueD2DTx[15].nic.pdcpRrc  receivedPacketFromUpperLayer:vector(packetBytes)  ETV
attr interpolationmode  none
attr source  receivedPacketFromUpperLayer
vector 688  CAIN.ueD2DTx[15].nic.pdcpRrc  sentPacketToLowerLayer:vector(packetBytes)  ETV
attr interpolationmode  none
attr source  sentPacketToLowerLayer
vector 689  CAIN.ueD2DTx[15].nic.mac  receivedPacketFromUpperLayer:vector(packetBytes)  ETV
attr interpolationmode  none
attr source  receivedPacketFromUpperLayer
vector 1645  CAIN.ueD2DTx[17].tcp  tcpRcvQueueBytes  ETV
vector 1632  CAIN.ueD2DTx[17].tcp  "advertised window"  ETV
vector 1631  CAIN.ueD2DTx[17].tcp  "receive window"  ETV
vector 1634  CAIN.ueD2DTx[17].tcp  "sent ack"  ETV
vector 749  CAIN.ueD2DTx[17].nic.pdcpRrc  receivedPacketFromUpperLayer:vector(packetBytes)  ETV
attr interpolationmode  none
attr source  receivedPacketFromUpperLayer
vector 752  CAIN.ueD2DTx[17].nic.pdcpRrc  sentPacketToLowerLayer:vector(packetBytes)  ETV
attr interpolationmode  none
attr source  sentPacketToLowerLayer
vector 753  CAIN.ueD2DTx[17].nic.mac  receivedPacketFromUpperLayer:vector(packetBytes)  ETV
attr interpolationmode  none
attr source  receivedPacketFromUpperLayer
vector 1669  CAIN.ueD2DTx[0].tcp  tcpRcvQueueBytes  ETV
vector 1656  CAIN.ueD2DTx[0].tcp  "advertised window"  ETV
vector 1655  CAIN.ueD2DTx[0].tcp  "receive window"  ETV
vector 1658  CAIN.ueD2DTx[0].tcp  "sent ack"  ETV
vector 205  CAIN.ueD2DTx[0].nic.pdcpRrc  receivedPacketFromUpperLayer:vector(packetBytes)  ETV
attr interpolationmode  none
attr source  receivedPacketFromUpperLayer
vector 208  CAIN.ueD2DTx[0].nic.pdcpRrc  sentPacketToLowerLayer:vector(packetBytes)  ETV
attr interpolationmode  none
attr source  sentPacketToLowerLayer
vector 209  CAIN.ueD2DTx[0].nic.mac  receivedPacketFromUpperLayer:vector(packetBytes)  ETV
attr interpolationmode  none
attr source  receivedPacketFromUpperLayer
vector 219  CAIN.ueD2DTx[0].nic.mac  CainHopMessageSent:vector  ETV
attr interpolationmode  none
attr title  "# of Sent CAIN hop message, vector"
vector 212  CAIN.ueD2DTx[0].nic.mac  sentPacketToLowerLayer:vector(packetBytes)  ETV
attr interpolationmode  none
attr source  sentPacketToLowerLayer
vector 499  CAIN.ueD2DTx[9].nic.mac  sentPacketToUpperLayer:vector(packetBytes)  ETV
attr interpolationmode  none
attr source  sentPacketToUpperLayer
vector 763  CAIN.ueD2DTx[17].nic.mac  CainHopMessageSent:vector  ETV
attr interpolationmode  none
attr title  "# of Sent CAIN hop message, vector"
vector 756  CAIN.ueD2DTx[17].nic.mac  sentPacketToLowerLayer:vector(packetBytes)  ETV
attr interpolationmode  none
attr source  sentPacketToLowerLayer
vector 109  CAIN.eNodeB.nic.mac  ServedHopDevs:vector  ETV
attr interpolationmode  none
attr title  "# of devices served on hop forwarding, vector"
vector 691  CAIN.ueD2DTx[15].nic.mac  sentPacketToUpperLayer:vector(packetBytes)  ETV
attr interpolationmode  none
attr source  sentPacketToUpperLayer
vector 1301  CAIN.eNodeB1.sctp  "SendQueue of Association 5"  ETV
vector 1065  CAIN.eNodeB1.sctp  "TSN Sent 5:10.0.5.1"  ETV
vector 1072  CAIN.eNodeB1.sctp  "Outstanding Bytes 5:10.0.5.1"  ETV
vector 870  CAIN.eNodeB1.sctp  "Outstanding Bytes 4:Total"  ETV
vector 1071  CAIN.eNodeB1.sctp  "Queued Sent Bytes 5:10.0.5.1"  ETV
vector 869  CAIN.eNodeB1.sctp  "Queued Sent Bytes 4:Total"  ETV
vector 914  CAIN.eNodeB.sctp  "TSN Received 1:10.0.5.2"  ETV
vector 890  CAIN.eNodeB.sctp  "Queued Received Bytes 1:Total"  ETV
vector 886  CAIN.eNodeB.sctp  "Advertised Receiver Window 1"  ETV
vector 895  CAIN.eNodeB.sctp  "Number of Total Gap Blocks Stored 1"  ETV
vector 896  CAIN.eNodeB.sctp  "Number of Revokable Gap Blocks Stored 1"  ETV
vector 897  CAIN.eNodeB.sctp  "Number of Non-Revokable Gap Blocks Stored 1"  ETV
vector 898  CAIN.eNodeB.sctp  "Number of Duplicate TSNs Stored 1"  ETV
vector 902  CAIN.eNodeB.sctp  "Length of SACK Sent 1"  ETV
vector 899  CAIN.eNodeB.sctp  "Number of Revokable Gap Blocks Sent 1"  ETV
vector 900  CAIN.eNodeB.sctp  "Number of Non-Revokable Gap Blocks Sent 1"  ETV
vector 901  CAIN.eNodeB.sctp  "Number of Duplicate TSNs Sent 1"  ETV
vector 906  CAIN.eNodeB.sctp  "End to End Delay of Association 1"  ETV
vector 141  CAIN.eNodeB.x2App[0].client  rcvdPk:vector(packetBytes)  ETV
attr interpolationmode  none
attr source  rcvdPk
attr title  "packets received, vector(packetBytes)"
vector 1300  CAIN.eNodeB1.sctp  "Number of Gap Blocks in Last SACK of Association 5"  ETV
vector 871  CAIN.eNodeB1.sctp  "Number of Revokable Gap Blocks in SACK 4"  ETV
vector 872  CAIN.eNodeB1.sctp  "Number of Non-Revokable Gap Blocks in SACK 4"  ETV
vector 1082  CAIN.eNodeB1.sctp  "TSN Acked CumAck 5:10.0.5.1"  ETV
vector 1048  CAIN.eNodeB1.sctp  "Number of Gap Acked Chunks in Last SACK 5:10.0.2.2"  ETV
vector 1049  CAIN.eNodeB1.sctp  "Number of Non-Revokable Gap Acked Chunks in Last SACK 5:10.0.2.2"  ETV
vector 1050  CAIN.eNodeB1.sctp  "Number of Gap Missed Chunks in Last SACK 5:10.0.2.2"  ETV
vector 1021  CAIN.eNodeB1.sctp  "Number of Gap Acked Chunks in Last SACK 5:10.0.4.1"  ETV
vector 1022  CAIN.eNodeB1.sctp  "Number of Non-Revokable Gap Acked Chunks in Last SACK 5:10.0.4.1"  ETV
vector 1023  CAIN.eNodeB1.sctp  "Number of Gap Missed Chunks in Last SACK 5:10.0.4.1"  ETV
vector 1075  CAIN.eNodeB1.sctp  "Number of Gap Acked Chunks in Last SACK 5:10.0.5.1"  ETV
vector 1076  CAIN.eNodeB1.sctp  "Number of Non-Revokable Gap Acked Chunks in Last SACK 5:10.0.5.1"  ETV
vector 1077  CAIN.eNodeB1.sctp  "Number of Gap Missed Chunks in Last SACK 5:10.0.5.1"  ETV
vector 881  CAIN.eNodeB1.sctp  "Arwnd in Last SACK 4"  ETV
vector 1084  CAIN.eNodeB1.sctp  "TSN PseudoCumAck 5:10.0.5.1"  ETV
vector 1085  CAIN.eNodeB1.sctp  "TSN RTXPseudoCumAck 5:10.0.5.1"  ETV
vector 1078  CAIN.eNodeB1.sctp  "Partial Bytes Acked 5:10.0.5.1"  ETV
vector 1693  CAIN.ueD2DTx[1].tcp  tcpRcvQueueBytes  ETV
vector 1680  CAIN.ueD2DTx[1].tcp  "advertised window"  ETV
vector 1679  CAIN.ueD2DTx[1].tcp  "receive window"  ETV
vector 1682  CAIN.ueD2DTx[1].tcp  "sent ack"  ETV
vector 237  CAIN.ueD2DTx[1].nic.pdcpRrc  receivedPacketFromUpperLayer:vector(packetBytes)  ETV
attr interpolationmode  none
attr source  receivedPacketFromUpperLayer
vector 240  CAIN.ueD2DTx[1].nic.pdcpRrc  sentPacketToLowerLayer:vector(packetBytes)  ETV
attr interpolationmode  none
attr source  sentPacketToLowerLayer
vector 241  CAIN.ueD2DTx[1].nic.mac  receivedPacketFromUpperLayer:vector(packetBytes)  ETV
attr interpolationmode  none
attr source  receivedPacketFromUpperLayer
vector 251  CAIN.ueD2DTx[1].nic.mac  CainHopMessageSent:vector  ETV
attr interpolationmode  none
attr title  "# of Sent CAIN hop message, vector"
vector 244  CAIN.ueD2DTx[1].nic.mac  sentPacketToLowerLayer:vector(packetBytes)  ETV
attr interpolationmode  none
attr source  sentPacketToLowerLayer
vector 1717  CAIN.ueD2DTx[5].tcp  tcpRcvQueueBytes  ETV
vector 1704  CAIN.ueD2DTx[5].tcp  "advertised window"  ETV
vector 1703  CAIN.ueD2DTx[5].tcp  "receive window"  ETV
vector 1706  CAIN.ueD2DTx[5].tcp  "sent ack"  ETV
vector 365  CAIN.ueD2DTx[5].nic.pdcpRrc  receivedPacketFromUpperLayer:vector(packetBytes)  ETV
attr interpolationmode  none
attr source  receivedPacketFromUpperLayer
vector 368  CAIN.ueD2DTx[5].nic.pdcpRrc  sentPacketToLowerLayer:vector(packetBytes)  ETV
attr interpolationmode  none
attr source  sentPacketToLowerLayer
vector 369  CAIN.ueD2DTx[5].nic.mac  receivedPacketFromUpperLayer:vector(packetBytes)  ETV
attr interpolationmode  none
attr source  receivedPacketFromUpperLayer
vector 378  CAIN.ueD2DTx[5].nic.mac  CainMessageSent:vector  ETV
attr interpolationmode  none
attr title  "# of Sent CAIN message, vector"
vector 372  CAIN.ueD2DTx[5].nic.mac  sentPacketToLowerLayer:vector(packetBytes)  ETV
attr interpolationmode  none
attr source  sentPacketToLowerLayer
vector 154  CAIN.eNodeB1.nic.mac  receivedPacketFromLowerLayer:vector(packetBytes)  ETV
attr interpolationmode  none
attr source  receivedPacketFromLowerLayer
vector 722  CAIN.ueD2DTx[16].nic.mac  receivedPacketFromLowerLayer:vector(packetBytes)  ETV
attr interpolationmode  none
attr source  receivedPacketFromLowerLayer
vector 724  CAIN.ueD2DTx[16].nic.mac  sentPacketToLowerLayer:vector(packetBytes)  ETV
attr interpolationmode  none
attr source  sentPacketToLowerLayer
vector 1741  CAIN.ueD2DTx[3].tcp  tcpRcvQueueBytes  ETV
vector 1728  CAIN.ueD2DTx[3].tcp  "advertised window"  ETV
vector 1727  CAIN.ueD2DTx[3].tcp  "receive window"  ETV
vector 1730  CAIN.ueD2DTx[3].tcp  "sent ack"  ETV
vector 301  CAIN.ueD2DTx[3].nic.pdcpRrc  receivedPacketFromUpperLayer:vector(packetBytes)  ETV
attr interpolationmode  none
attr source  receivedPacketFromUpperLayer
vector 304  CAIN.ueD2DTx[3].nic.pdcpRrc  sentPacketToLowerLayer:vector(packetBytes)  ETV
attr interpolationmode  none
attr source  sentPacketToLowerLayer
vector 305  CAIN.ueD2DTx[3].nic.mac  receivedPacketFromUpperLayer:vector(packetBytes)  ETV
attr interpolationmode  none
attr source  receivedPacketFromUpperLayer
vector 315  CAIN.ueD2DTx[3].nic.mac  CainHopMessageSent:vector  ETV
attr interpolationmode  none
attr title  "# of Sent CAIN hop message, vector"
vector 308  CAIN.ueD2DTx[3].nic.mac  sentPacketToLowerLayer:vector(packetBytes)  ETV
attr interpolationmode  none
attr source  sentPacketToLowerLayer
vector 1765  CAIN.ueD2DTx[16].tcp  tcpRcvQueueBytes  ETV
vector 1752  CAIN.ueD2DTx[16].tcp  "advertised window"  ETV
vector 1751  CAIN.ueD2DTx[16].tcp  "receive window"  ETV
vector 1754  CAIN.ueD2DTx[16].tcp  "sent ack"  ETV
vector 717  CAIN.ueD2DTx[16].nic.pdcpRrc  receivedPacketFromUpperLayer:vector(packetBytes)  ETV
attr interpolationmode  none
attr source  receivedPacketFromUpperLayer
vector 720  CAIN.ueD2DTx[16].nic.pdcpRrc  sentPacketToLowerLayer:vector(packetBytes)  ETV
attr interpolationmode  none
attr source  sentPacketToLowerLayer
vector 721  CAIN.ueD2DTx[16].nic.mac  receivedPacketFromUpperLayer:vector(packetBytes)  ETV
attr interpolationmode  none
attr source  receivedPacketFromUpperLayer
vector 730  CAIN.ueD2DTx[16].nic.mac  CainMessageSent:vector  ETV
attr interpolationmode  none
attr title  "# of Sent CAIN message, vector"
vector 1789  CAIN.ueD2DTx[18].tcp  tcpRcvQueueBytes  ETV
vector 1776  CAIN.ueD2DTx[18].tcp  "advertised window"  ETV
vector 1775  CAIN.ueD2DTx[18].tcp  "receive window"  ETV
vector 1778  CAIN.ueD2DTx[18].tcp  "sent ack"  ETV
vector 781  CAIN.ueD2DTx[18].nic.pdcpRrc  receivedPacketFromUpperLayer:vector(packetBytes)  ETV
attr interpolationmode  none
attr source  receivedPacketFromUpperLayer
vector 784  CAIN.ueD2DTx[18].nic.pdcpRrc  sentPacketToLowerLayer:vector(packetBytes)  ETV
attr interpolationmode  none
attr source  sentPacketToLowerLayer
vector 785  CAIN.ueD2DTx[18].nic.mac  receivedPacketFromUpperLayer:vector(packetBytes)  ETV
attr interpolationmode  none
attr source  receivedPacketFromUpperLayer
vector 788  CAIN.ueD2DTx[18].nic.mac  sentPacketToLowerLayer:vector(packetBytes)  ETV
attr interpolationmode  none
attr source  sentPacketToLowerLayer
vector 169  CAIN.eNodeB1.nic.mac  racpkt:vector  ETV
attr interpolationmode  none
attr title  "eNB received racpkt message, vector"
vector 170  CAIN.eNodeB1.nic.mac  racDistanceSignal:vector  ETV
attr interpolationmode  none
attr title  "Rac distance to enb, vector"
vector 171  CAIN.eNodeB1.nic.mac  racServedDevsSignal:vector  ETV
attr interpolationmode  none
attr title  "# of devices served on rac arriavall, vector"
vector 156  CAIN.eNodeB1.nic.mac  sentPacketToLowerLayer:vector(packetBytes)  ETV
attr interpolationmode  none
attr source  sentPacketToLowerLayer
vector 786  CAIN.ueD2DTx[18].nic.mac  receivedPacketFromLowerLayer:vector(packetBytes)  ETV
attr interpolationmode  none
attr source  receivedPacketFromLowerLayer
vector 594  CAIN.ueD2DTx[12].nic.mac  receivedPacketFromLowerLayer:vector(packetBytes)  ETV
attr interpolationmode  none
attr source  receivedPacketFromLowerLayer
vector 595  CAIN.ueD2DTx[12].nic.mac  sentPacketToUpperLayer:vector(packetBytes)  ETV
attr interpolationmode  none
attr source  sentPacketToUpperLayer
vector 274  CAIN.ueD2DTx[2].nic.mac  receivedPacketFromLowerLayer:vector(packetBytes)  ETV
attr interpolationmode  none
attr source  receivedPacketFromLowerLayer
vector 275  CAIN.ueD2DTx[2].nic.mac  sentPacketToUpperLayer:vector(packetBytes)  ETV
attr interpolationmode  none
attr source  sentPacketToUpperLayer
vector 339  CAIN.ueD2DTx[4].nic.mac  sentPacketToUpperLayer:vector(packetBytes)  ETV
attr interpolationmode  none
attr source  sentPacketToUpperLayer
vector 218  CAIN.ueD2DTx[0].nic.mac  CainMessageSent:vector  ETV
attr interpolationmode  none
attr title  "# of Sent CAIN message, vector"
vector 754  CAIN.ueD2DTx[17].nic.mac  receivedPacketFromLowerLayer:vector(packetBytes)  ETV
attr interpolationmode  none
attr source  receivedPacketFromLowerLayer
vector 755  CAIN.ueD2DTx[17].nic.mac  sentPacketToUpperLayer:vector(packetBytes)  ETV
attr interpolationmode  none
attr source  sentPacketToUpperLayer
vector 242  CAIN.ueD2DTx[1].nic.mac  receivedPacketFromLowerLayer:vector(packetBytes)  ETV
attr interpolationmode  none
attr source  receivedPacketFromLowerLayer
vector 243  CAIN.ueD2DTx[1].nic.mac  sentPacketToUpperLayer:vector(packetBytes)  ETV
attr interpolationmode  none
attr source  sentPacketToUpperLayer
vector 787  CAIN.ueD2DTx[18].nic.mac  sentPacketToUpperLayer:vector(packetBytes)  ETV
attr interpolationmode  none
attr source  sentPacketToUpperLayer
1108	50309 24 150 150 0.0000001228 0.0000001228 1 0 0 0 0
1219	50333 28 235 235 0.0000006304 0.0000006304 1 65535 65535 65535 4294836225
1220	50361 27 235 235 0.0000006304 0.0000006304 1 8940 8940 8940 79923600
1221	50388 29 235 235 0.0000006304 0.0000006304 1 0.3725 0.3725 0.3725 0.13875625
1217	50417 24 235 235 0.0000006304 0.0000006304 1 3 3 3 9
1224	50441 24 235 235 0.0000006304 0.0000006304 1 1 1 1 1
1236	50465 24 163 163 0.0000003096 0.0000003096 1 0 0 0 0
1192	50489 28 235 235 0.0000006304 0.0000006304 1 65535 65535 65535 4294836225
1193	50517 27 235 235 0.0000006304 0.0000006304 1 8940 8940 8940 79923600
1194	50544 29 235 235 0.0000006304 0.0000006304 1 0.3725 0.3725 0.3725 0.13875625
1190	50573 24 235 235 0.0000006304 0.0000006304 1 3 3 3 9
1197	50597 24 235 235 0.0000006304 0.0000006304 1 1 1 1 1
1209	50621 24 163 163 0.0000003096 0.0000003096 1 0 0 0 0
910	50645 27 235 235 0.0000006304 0.0000006304 1 65535 65535 65535 4294836225
911	50672 26 235 235 0.0000006304 0.0000006304 1 8940 8940 8940 79923600
912	50698 28 235 235 0.0000006304 0.0000006304 1 0.3725 0.3725 0.3725 0.13875625
908	50726 46 235 302 0.0000006304 0.0000008564 2 1 3 4 10
909	50772 30 302 302 0.0000008564 0.0000008564 1 2.26e-07 2.26e-07 2.26e-07 5.1076e-14
914	50802 1757 3590 16544 0.0570000972 0.2570014396 63 2000 2062 127953 259893375
917	52559 44 207 221 0.000000552 0.000000596 2 1 2 3 5
916	52603 44 207 221 0.000000552 0.000000596 2 1 2 3 5
918	52647 46 302 308 0.0000008564 0.0000009004 2 1 2 3 5
927	52693 12 131 131 0 0 1 0 0 0 0
886	52705 86 3590 29250 0.0570000972 0.4570014396 3 65533 65535 196603 12884246539
890	52791 1645 3590 29250 0.0570000972 0.4570014396 66 0 112 128 12696
895	54436 74 3590 29250 0.0570000972 0.4570014396 3 0 0 0 0
896	54510 74 3590 29250 0.0570000972 0.4570014396 3 0 0 0 0
897	54584 74 3590 29250 0.0570000972 0.4570014396 3 0 0 0 0
898	54658 74 3590 29250 0.0570000972 0.4570014396 3 0 0 0 0
899	54732 74 3590 29250 0.0570000972 0.4570014396 3 0 0 0 0
900	54806 74 3590 29250 0.0570000972 0.4570014396 3 0 0 0 0
901	54880 74 3590 29250 0.0570000972 0.4570014396 3 0 0 0 0
902	54954 77 3590 29250 0.0570000972 0.4570014396 3 16 16 48 768
904	55031 27 163 163 0.0000003096 0.0000003096 1 65535 65535 65535 4294836225
906	55058 2071 3593 16601 0.0570000972 0.2570014396 63 9.72e-08 9.772e-07 5.58836e-05 5.367335792e-11
907	57129 12 131 131 0 0 1 0 0 0 0
1138	57141 27 178 178 0.000000458 0.000000458 1 65535 65535 65535 4294836225
1139	57168 26 178 178 0.000000458 0.000000458 1 8940 8940 8940 79923600
1140	57194 28 178 178 0.000000458 0.000000458 1 0.3725 0.3725 0.3725 0.13875625
1136	57222 23 178 178 0.000000458 0.000000458 1 3 3 3 9
1143	57245 23 178 178 0.000000458 0.000000458 1 1 1 1 1
1151	57268 76 636 26145 0.0070001912 0.4070015336 3 0 0 0 0
1152	57344 76 636 26145 0.0070001912 0.4070015336 3 0 0 0 0
1153	57420 76 636 26145 0.0070001912 0.4070015336 3 0 0 0 0
1155	57496 24 150 150 0.0000001228 0.0000001228 1 0 0 0 0
1111	57520 27 178 178 0.000000458 0.000000458 1 65535 65535 65535 4294836225
1112	57547 26 178 178 0.000000458 0.000000458 1 8940 8940 8940 79923600
1113	57573 28 178 178 0.000000458 0.000000458 1 0.3725 0.3725 0.3725 0.13875625
1109	57601 23 178 178 0.000000458 0.000000458 1 3 3 3 9
1116	57624 23 178 178 0.000000458 0.000000458 1 1 1 1 1
1124	57647 76 636 26145 0.0070001912 0.4070015336 3 0 0 0 0
1125	57723 76 636 26145 0.0070001912 0.4070015336 3 0 0 0 0
1126	57799 76 636 26145 0.0070001912 0.4070015336 3 0 0 0 0
1128	57875 24 150 150 0.0000001228 0.0000001228 1 0 0 0 0
1165	57899 57 178 75795 0.000000458 1.2070004624 2 65535 65535 131070 8589672450
1166	57956 55 178 75795 0.000000458 1.2070004624 2 8940 8940 17880 159847200
1167	58011 58 178 75795 0.000000458 1.2070004624 2 0.3725 23.84 24.2125 568.48435625
1163	58069 123 178 26145 0.000000458 0.4070015336 5 1 3 7 13
1164	58192 138 255 26145 0.0000006744 0.4070015336 4 1.912e-07 0.2000010712 0.40000175 0.080000536961304
1168	58330 1806 587 13178 0.007 0.2070004624 63 2000 2062 127953 259893375
1172	60136 48 273 287 0.0000007624 0.0000008064 2 1 2 3 5
1171	60184 48 273 287 0.0000007624 0.0000008064 2 1 2 3 5
1173	60232 48 255 265 0.0000006744 0.0000007184 2 1 2 3 5
1174	60280 3372 587 26145 0.007 0.4070015336 126 0 112 6346 468972
1175	63652 3372 587 26145 0.007 0.4070015336 126 0 112 6346 468972
1178	67024 76 636 26145 0.0070001912 0.4070015336 3 0 0 0 0
1179	67100 76 636 26145 0.0070001912 0.4070015336 3 0 0 0 0
1180	67176 76 636 26145 0.0070001912 0.4070015336 3 0 0 0 0
1181	67252 76 636 26145 0.0070001912 0.4070015336 3 0 0 0 0
1182	67328 24 150 150 0.0000001228 0.0000001228 1 0 0 0 0
1185	67352 85 636 26145 0.0070001912 0.4070015336 3 2000 2062 6068 12275880
1187	67437 76 636 26145 0.0070001912 0.4070015336 3 0 0 0 0
1188	67513 76 636 26145 0.0070001912 0.4070015336 3 0 0 0 0
1304	67589 76 636 26145 0.0070001912 0.4070015336 3 0 0 0 0
1305	67665 2830 587 13178 0.007 0.2070004624 126 0 56 3173 117243
848	70495 3246 587 26145 0.007 0.4070015336 126 0 112 6346 468972
847	73741 3246 587 26145 0.007 0.4070015336 126 0 112 6346 468972
849	76987 73 636 26145 0.0070001912 0.4070015336 3 0 0 0 0
850	77060 73 636 26145 0.0070001912 0.4070015336 3 0 0 0 0
859	77133 85 636 26145 0.0070001912 0.4070015336 3 65533 65535 196603 12884246539
860	77218 112 150 26145 0.0000001228 0.4070015336 4 65533 65535 262138 17179082764
863	77330 12 123 123 0 0 1 0 0 0 0
1005	77342 24 149 149 0.0000001228 0.0000001228 1 0 0 0 0
1273	77366 28 236 236 0.0000006304 0.0000006304 1 65535 65535 65535 4294836225
1274	77394 27 236 236 0.0000006304 0.0000006304 1 8940 8940 8940 79923600
1275	77421 29 236 236 0.0000006304 0.0000006304 1 0.3725 0.3725 0.3725 0.13875625
1271	77450 24 236 236 0.0000006304 0.0000006304 1 3 3 3 9
1278	77474 24 236 236 0.0000006304 0.0000006304 1 1 1 1 1
1290	77498 24 164 164 0.0000003096 0.0000003096 1 0 0 0 0
1246	77522 28 236 236 0.0000006304 0.0000006304 1 65535 65535 65535 4294836225
1247	77550 27 236 236 0.0000006304 0.0000006304 1 8940 8940 8940 79923600
1248	77577 29 236 236 0.0000006304 0.0000006304 1 0.3725 0.3725 0.3725 0.13875625
1244	77606 24 236 236 0.0000006304 0.0000006304 1 3 3 3 9
1251	77630 24 236 236 0.0000006304 0.0000006304 1 1 1 1 1
1263	77654 24 164 164 0.0000003096 0.0000003096 1 0 0 0 0
959	77678 27 236 236 0.0000006304 0.0000006304 1 65535 65535 65535 4294836225
960	77705 26 236 236 0.0000006304 0.0000006304 1 8940 8940 8940 79923600
961	77731 28 236 236 0.0000006304 0.0000006304 1 0.3725 0.3725 0.3725 0.13875625
957	77759 46 236 301 0.0000006304 0.0000008564 2 1 3 4 10
958	77805 30 301 301 0.0000008564 0.0000008564 1 2.26e-07 2.26e-07 2.26e-07 5.1076e-14
963	77835 1750 624 13185 0.0070000972 0.2070014396 63 2000 2062 127953 259893375
966	79585 44 208 222 0.000000552 0.000000596 2 1 2 3 5
965	79629 44 208 222 0.000000552 0.000000596 2 1 2 3 5
967	79673 46 301 307 0.0000008564 0.0000009004 2 1 2 3 5
976	79719 12 132 132 0 0 1 0 0 0 0
935	79731 85 624 26138 0.0070000972 0.4070014396 3 65533 65535 196603 12884246539
939	79816 1637 624 26138 0.0070000972 0.4070014396 66 0 112 128 12696
944	81453 73 624 26138 0.0070000972 0.4070014396 3 0 0 0 0
945	81526 73 624 26138 0.0070000972 0.4070014396 3 0 0 0 0
946	81599 73 624 26138 0.0070000972 0.4070014396 3 0 0 0 0
947	81672 73 624 26138 0.0070000972 0.4070014396 3 0 0 0 0
948	81745 73 624 26138 0.0070000972 0.4070014396 3 0 0 0 0
949	81818 73 624 26138 0.0070000972 0.4070014396 3 0 0 0 0
950	81891 73 624 26138 0.0070000972 0.4070014396 3 0 0 0 0
951	81964 76 624 26138 0.0070000972 0.4070014396 3 16 16 48 768
953	82040 27 164 164 0.0000003096 0.0000003096 1 65535 65535 65535 4294836225
955	82067 2064 627 13242 0.0070000972 0.2070014396 63 9.72e-08 9.772e-07 5.58836e-05 5.367335792e-11
956	84131 12 132 132 0 0 1 0 0 0 0
1035	84143 27 177 177 0.000000458 0.000000458 1 65535 65535 65535 4294836225
1036	84170 26 177 177 0.000000458 0.000000458 1 8940 8940 8940 79923600
1037	84196 28 177 177 0.000000458 0.000000458 1 0.3725 0.3725 0.3725 0.13875625
1033	84224 23 177 177 0.000000458 0.000000458 1 3 3 3 9
1040	84247 23 177 177 0.000000458 0.000000458 1 1 1 1 1
1048	84270 77 3602 29257 0.0570001912 0.4570015336 3 0 0 0 0
1049	84347 77 3602 29257 0.0570001912 0.4570015336 3 0 0 0 0
1050	84424 77 3602 29257 0.0570001912 0.4570015336 3 0 0 0 0
1052	84501 24 149 149 0.0000001228 0.0000001228 1 0 0 0 0
1008	84525 27 177 177 0.000000458 0.000000458 1 65535 65535 65535 4294836225
1009	84552 26 177 177 0.000000458 0.000000458 1 8940 8940 8940 79923600
1010	84578 28 177 177 0.000000458 0.000000458 1 0.3725 0.3725 0.3725 0.13875625
1006	84606 23 177 177 0.000000458 0.000000458 1 3 3 3 9
1013	84629 23 177 177 0.000000458 0.000000458 1 1 1 1 1
1021	84652 77 3602 29257 0.0570001912 0.4570015336 3 0 0 0 0
1022	84729 77 3602 29257 0.0570001912 0.4570015336 3 0 0 0 0
1023	84806 77 3602 29257 0.0570001912 0.4570015336 3 0 0 0 0
1025	84883 24 149 149 0.0000001228 0.0000001228 1 0 0 0 0
1062	84907 57 177 78913 0.000000458 1.2570004624 2 65535 65535 131070 8589672450
1063	84964 55 177 78913 0.000000458 1.2570004624 2 8940 8940 17880 159847200
1064	85019 58 177 78913 0.000000458 1.2570004624 2 0.3725 23.84 24.2125 568.48435625
1060	85077 124 177 29257 0.000000458 0.4570015336 5 1 3 7 13
1061	85201 139 256 29257 0.0000006744 0.4570015336 4 1.912e-07 0.2000010712 0.40000175 0.080000536961304
1065	85340 1813 3525 16537 0.057 0.2570004624 63 2000 2062 127953 259893375
1069	87153 48 274 288 0.0000007624 0.0000008064 2 1 2 3 5
1068	87201 48 274 288 0.0000007624 0.0000008064 2 1 2 3 5
1070	87249 48 256 266 0.0000006744 0.0000007184 2 1 2 3 5
1071	87297 3380 3525 29257 0.057 0.4570015336 126 0 112 6346 468972
1072	90677 3380 3525 29257 0.057 0.4570015336 126 0 112 6346 468972
1075	94057 77 3602 29257 0.0570001912 0.4570015336 3 0 0 0 0
1076	94134 77 3602 29257 0.0570001912 0.4570015336 3 0 0 0 0
1077	94211 77 3602 29257 0.0570001912 0.4570015336 3 0 0 0 0
1078	94288 77 3602 29257 0.0570001912 0.4570015336 3 0 0 0 0
1079	94365 24 149 149 0.0000001228 0.0000001228 1 0 0 0 0
1082	94389 86 3602 29257 0.0570001912 0.4570015336 3 2000 2062 6068 12275880
1084	94475 77 3602 29257 0.0570001912 0.4570015336 3 0 0 0 0
1085	94552 77 3602 29257 0.0570001912 0.4570015336 3 0 0 0 0
1300	94629 77 3602 29257 0.0570001912 0.4570015336 3 0 0 0 0
1301	94706 2851 3525 16537 0.057 0.2570004624 126 0 56 3173 117243
870	97557 3254 3525 29257 0.057 0.4570015336 126 0 112 6346 468972
869	100811 3254 3525 29257 0.057 0.4570015336 126 0 112 6346 468972
871	104065 74 3602 29257 0.0570001912 0.4570015336 3 0 0 0 0
872	104139 74 3602 29257 0.0570001912 0.4570015336 3 0 0 0 0
881	104213 86 3602 29257 0.0570001912 0.4570015336 3 65533 65535 196603 12884246539
882	104299 113 149 29257 0.0000001228 0.4570015336 4 65533 65535 262138 17179082764
885	104412 12 128 128 0 0 1 0 0 0 0
8	104424 8 0 0 0 0 1 0 0 0 0
9	104432 8 0 0 0 0 1 0 0 0 0
24	104440 9 0 0 0 0 1 0 0 0 0
25	104449 9 0 0 0 0 1 0 0 0 0
35	104458 9 0 0 0 0 1 0 0 0 0
36	104467 9 0 0 0 0 1 0 0 0 0
56	104476 9 0 0 0 0 1 0 0 0 0
57	104485 9 0 0 0 0 1 0 0 0 0
67	104494 9 0 0 0 0 1 0 0 0 0
68	104503 9 0 0 0 0 1 0 0 0 0
78	104512 9 0 0 0 0 1 0 0 0 0
79	104521 9 0 0 0 0 1 0 0 0 0
96	104530 944776 378 673355 0.002 10 53579 0 0 0 0
98	1049306 364499 1039 673341 0.015 10 20565 0 0 0 0
100	1413805 128223 1042 673341 0.015 10 5975 1 5975 17853300 71121596100
101	1542028 173131 1103 673278 0.017 9.999 7982 1 7982 31860153 169549114215
106	1715159 568389 1042 673355 0.015 10 27501 150 534 9494768 3753244552
108	2283548 103982 2521 673351 0.042 10 5583 2 5 26103 123307
109	2387530 155659 3233 673355 0.053 10 7961 8 11 87546 962788
111	2543189 666073 1039 673355 0.015 10 29904 1 29904 447139560 8914323314680
112	3209262 599449 1039 673355 0.015 10 29904 60 293 4389849 929724003
113	3808711 557563 1039 673355 0.015 10 29904 0 0 0 0
115	4366274 39596 1224 673272 0.019 9.999 1997 15 15 29955 449325
120	4405870 10 0 0 0 0 1 0 0 0 0
121	4405880 10 0 0 0 0 1 0 0 0 0
128	4405890 421 139 29252 0 0.4570014396 18 36 1152 2284 1426960
130	4406311 438 139 29252 0 0.4570014396 18 0 8.8e-08 3.088e-07 1.946112e-14
131	4406749 280 0 258 0 0.0000007124 13 0 2 10 14
132	4407029 828 0 29254 0 0.4570014836 37 0 1 18 18
133	4407857 423 141 29253 0 0.4570014396 18 43 1159 2410 1459818
134	4408280 442 146 26143 0.0000001228 0.4070015336 18 43 1159 2410 1459818
137	4408722 423 141 29253 0 0.4570014396 18 36 1152 2284 1426960
138	4409145 442 146 26143 0.0000001228 0.4070015336 18 36 1152 2284 1426960
141	4409587 1568 3595 16712 0.0570000972 0.2570014396 63 2 2 126 252
154	4411155 272558 3899 673270 0.062 9.999 14598 0 0 0 0
156	4683713 112177 6013 673302 0.093 10 5992 0 0 0 0
169	4795890 64561 6013 673270 0.093 9.999 2999 1 2999 4498500 8995500500
170	4860451 62669 6013 673270 0.093 9.999 2999 237 616 1365760 687751538
171	4923120 56671 6013 673270 0.093 9.999 2999 0 0 0 0
178	4979791 10 0 0 0 0 1 0 0 0 0
179	4979801 10 0 0 0 0 1 0 0 0 0
186	4979811 422 140 26140 0 0.4070014396 18 36 1152 2284 1426960
188	4980233 439 140 26140 0 0.4070014396 18 0 8.8e-08 3.088e-07 1.946112e-14
189	4980672 280 0 257 0 0.0000007124 13 0 2 10 14
190	4980952 830 0 26142 0 0.4070014836 37 0 1 18 18
191	4981782 424 142 26141 0 0.4070014396 18 43 1159 2410 1459818
192	4982206 441 145 29255 0.0000001228 0.4570015336 18 43 1159 2410 1459818
195	4982647 424 142 26141 0 0.4070014396 18 36 1152 2284 1426960
196	4983071 441 145 29255 0.0000001228 0.4570015336 18 36 1152 2284 1426960
199	4983512 1561 629 13353 0.0070000972 0.2070014396 63 2 2 126 252
205	4985073 85 3178 604659 0.052847558425 9.052847558425 3 44 44 132 5808
208	4985158 85 3178 604659 0.052847558425 9.052847558425 3 45 45 135 6075
209	4985243 85 3181 604662 0.052847558425 9.052847558425 3 45 45 135 6075
212	4985328 26427 3184 673124 0.053 9.998 1391 0 0 0 0
218	5011755 29473 190653 673124 3.053 9.998 1390 1 1390 966745 896172615
219	5041228 17 3184 3184 0.053 0.053 1 1 1 1 1
231	5041245 163 0 6771 0 0.105 10 1 2 19 37
237	5041408 85 3644 605070 0.057084039294 9.057084039294 3 44 44 132 5808
240	5041493 85 3644 605070 0.057084039294 9.057084039294 3 45 45 135 6075
241	5041578 165 3647 605779 0.057084039294 9.067 7 19 45 233 8597
242	5041743 150 191241 605722 3.06 9.066 8 0 0 0 0
243	5041893 76 191353 605775 3.062 9.067 4 0 0 0 0
244	5041969 93 3651 605485 0.058 9.063 5 0 0 0 0
251	5042062 17 3651 3651 0.058 0.058 1 1 1 1 1
263	5042079 163 0 6772 0 0.105 10 1 2 19 37
269	5042242 85 1953 603093 0.032546852513 9.032546852513 3 44 44 132 5808
272	5042327 85 1953 603093 0.032546852513 9.032546852513 3 45 45 135 6075
273	5042412 2731 1956 604591 0.032546852513 9.052 142 0 45 245 7447
274	5045143 5206 189350 604544 3.035 9.051 278 0 0 0 0
275	5050349 2641 189468 604587 3.037 9.052 139 0 0 0 0
276	5052990 2726 1961 604250 0.033 9.048 144 0 0 0 0
283	5055716 85 1961 3187 0.033 0.053 5 1 5 15 55
295	5055801 163 0 6773 0 0.105 10 1 2 19 37
301	5055964 85 4084 605608 0.064453871725 9.064453871725 3 44 44 132 5808
304	5056049 85 4084 605608 0.064453871725 9.064453871725 3 45 45 135 6075
305	5056134 85 4087 605611 0.064453871725 9.064453871725 3 45 45 135 6075
308	5056219 36333 4093 673308 0.065 10 1988 0 0 0 0
315	5092552 41190 4093 673308 0.065 10 1988 1 1988 1977066 2620930494
327	5133742 10 0 0 0 0 1 1 1 1 1
333	5133752 85 2240 603453 0.037261432968 9.037261432968 3 44 44 132 5808
336	5133837 85 2240 603453 0.037261432968 9.037261432968 3 45 45 135 6075
337	5133922 17205 2243 673076 0.037261432968 9.997 904 0 45 203 6659
338	5151127 34317 1036 673336 0.015 10 1836 0 0 0 0
339	5185444 17119 189837 673072 3.042 9.997 901 0 0 0 0
340	5202563 17773 1036 673129 0.015 9.998 939 0 0 0 0
346	5220336 68 2251 3190 0.038 0.053 4 1 4 10 30
359	5220404 163 0 6774 0 0.105 10 1 2 19 37
365	5220567 85 3868 605359 0.061955560849 9.061955560849 3 44 44 132 5808
368	5220652 85 3868 605359 0.061955560849 9.061955560849 3 45 45 135 6075
369	5220737 85 3871 605362 0.061955560849 9.061955560849 3 45 45 135 6075
372	5220822 37445 3880 673077 0.062 9.997 1988 0 0 0 0
378	5258267 42302 3880 673077 0.062 9.997 1988 1 1988 1977066 2620930494
391	5300569 10 0 0 0 0 1 1 1 1 1
397	5300579 85 1546 602548 0.025271030879 9.025271030879 3 44 44 132 5808
400	5300664 85 1546 602548 0.025271030879 9.025271030879 3 45 45 135 6075
401	5300749 85 1549 602551 0.025271030879 9.025271030879 3 45 45 135 6075
402	5300834 74956 2142 673033 0.036 9.996 3980 0 0 0 0
404	5375790 112519 1559 673033 0.026 9.996 5975 0 0 0 0
411	5488309 42441 1559 673001 0.026 9.996 1995 1 1995 1991010 2648706970
423	5530750 10 0 0 0 0 1 1 1 1 1
429	5530760 85 1461 602464 0.024352218178 9.024352218178 3 44 44 132 5808
432	5530845 85 1461 602464 0.024352218178 9.024352218178 3 45 45 135 6075
433	5530930 3848 1464 673240 0.024352218178 9.999 201 0 45 283 9067
434	5534778 82324 1662 673281 0.027 9.999 4367 0 0 0 0
435	5617102 3758 1711 673236 0.029 9.999 198 0 0 0 0
436	5620860 78474 1515 673313 0.025 10 4170 0 0 0 0
455	5699334 10 0 0 0 0 1 1 1 1 1
461	5699344 85 2818 604221 0.047532676856 9.047532676856 3 44 44 132 5808
464	5699429 85 2818 604221 0.047532676856 9.047532676856 3 45 45 135 6075
465	5699514 85 2821 604224 0.047532676856 9.047532676856 3 45 45 135 6075
468	5699599 37496 2854 673134 0.048 9.998 1991 0 0 0 0
475	5737095 42362 2854 673134 0.048 9.998 1991 1 1991 1983036 2632810796
487	5779457 10 0 0 0 0 1 1 1 1 1
493	5779467 85 2886 604306 0.048413756283 9.048413756283 3 44 44 132 5808
496	5779552 85 2886 604306 0.048413756283 9.048413756283 3 45 45 135 6075
497	5779637 143 2889 604681 0.048413756283 9.053 6 45 47 276 12702
498	5779780 224041 1698 673348 0.028 10 11956 0 0 0 0
499	6003821 55 3197 604677 0.053 9.053 3 0 0 0 0
500	6003876 223853 1698 673348 0.028 10 11945 0 0 0 0
505	6227729 133 1796 3063 0.03 0.05 8 1 8 36 204
519	6227862 10 0 0 0 0 1 1 1 1 1
525	6227872 85 2040 603220 0.034129833705 9.034129833705 3 44 44 132 5808
528	6227957 85 2040 603220 0.034129833705 9.034129833705 3 45 45 135 6075
529	6228042 181 2043 631076 0.034129833705 9.409 8 14 45 268 10142
530	6228223 152822 1009 673346 0.014 10 8173 0 0 0 0
531	6381045 91 2336 631072 0.039 9.409 5 0 0 0 0
532	6381136 145385 1009 673317 0.014 10 7781 0 0 0 0
536	6526521 7923 1075 673346 0.016 10 388 1 388 75466 19545694
551	6534444 10 0 0 0 0 1 1 1 1 1
557	6534454 85 1334 602269 0.021843716542 9.021843716542 3 44 44 132 5808
560	6534539 85 1334 602269 0.021843716542 9.021843716542 3 45 45 135 6075
561	6534624 143 1337 602572 0.021843716542 9.026 6 45 47 276 12702
562	6534767 110 1456 602517 0.024 9.025 6 0 0 0 0
563	6534877 55 1565 602568 0.026 9.026 3 0 0 0 0
564	6534932 55 1352 602288 0.022 9.022 3 0 0 0 0
583	6534987 10 0 0 0 0 1 1 1 1 1
589	6534997 84 939 601692 0.013528948517 9.013528948517 3 44 44 132 5808
592	6535081 84 939 601692 0.013528948517 9.013528948517 3 45 45 135 6075
593	6535165 10653 942 627437 0.013528948517 9.358 559 0 45 245 7447
594	6545818 21128 188049 627396 3.016 9.357 1112 0 0 0 0
595	6566946 10564 188144 627433 3.018 9.358 556 0 0 0 0
596	6577510 10716 957 627125 0.014 9.354 565 0 0 0 0
603	6588226 152 957 3269 0.014 0.054 9 1 9 45 285
615	6588378 163 0 6775 0 0.105 10 1 2 19 37
621	6588541 84 857 601609 0.012270864309 9.012270864309 3 44 44 132 5808
624	6588625 84 857 601609 0.012270864309 9.012270864309 3 45 45 135 6075
625	6588709 84 860 601612 0.012270864309 9.012270864309 3 45 45 135 6075
628	6588793 37614 917 673140 0.013 9.998 1998 0 0 0 0
634	6626407 42501 917 673140 0.013 9.998 1998 1 1998 1997001 2660670999
647	6668908 10 0 0 0 0 1 1 1 1 1
653	6668918 85 2048 603227 0.034439526021 9.034439526021 3 44 44 132 5808
656	6669003 85 2048 603227 0.034439526021 9.034439526021 3 45 45 135 6075
657	6669088 85 2051 603230 0.034439526021 9.034439526021 3 45 45 135 6075
660	6669173 36432 2069 673322 0.035 10 1994 0 0 0 0
667	6705605 41307 2069 673322 0.035 10 1994 1 1994 1989015 2644726945
679	6746912 10 0 0 0 0 1 1 1 1 1
685	6746922 85 3116 604577 0.051566809383 9.051566809383 3 44 44 132 5808
688	6747007 85 3116 604577 0.051566809383 9.051566809383 3 45 45 135 6075
689	6747092 143 3119 604918 0.051566809383 9.056 6 45 47 276 12702
690	6747235 821 1070 604865 0.016 9.055 48 0 0 0 0
691	6748056 55 3425 604914 0.056 9.056 3 0 0 0 0
692	6748111 511 1070 604609 0.016 9.052 30 0 0 0 0
696	6748622 51 2455 3105 0.041 0.051 3 1 3 6 14
697	6748673 207 1153 3231 0.018 0.053 12 1 12 78 650
711	6748880 10 0 0 0 0 1 1 1 1 1
717	6748890 85 4817 606455 0.075361895796 9.075361895796 3 44 44 132 5808
720	6748975 85 4817 606455 0.075361895796 9.075361895796 3 45 45 135 6075
721	6749060 85 4820 606458 0.075361895796 9.075361895796 3 45 45 135 6075
722	6749145 74874 4064 673264 0.064 9.999 3975 0 0 0 0
724	6824019 112267 4064 673264 0.064 9.999 5960 0 0 0 0
730	6936286 42241 4841 673012 0.076 9.996 1985 1 1985 1971105 2609085985
743	6978527 10 0 0 0 0 1 1 1 1 1
749	6978537 82 3170 604652 0.05273845314 9.05273845314 3 44 44 132 5808
752	6978619 82 3170 604652 0.05273845314 9.05273845314 3 45 45 135 6075
753	6978701 26473 3173 673094 0.05273845314 9.997 1392 0 45 135 6075
754	7005174 78433 190763 673344 3.054 10 4169 0 0 0 0
755	7083607 26391 191022 673090 3.057 9.997 1389 0 0 0 0
756	7109998 52837 3210 673258 0.053 9.999 2781 0 0 0 0
763	7162835 17 3210 3210 0.053 0.053 1 1 1 1 1
775	7162852 163 0 6776 0 0.105 10 1 2 19 37
781	7163015 85 5848 607623 0.091364573385 9.091364573385 3 44 44 132 5808
784	7163100 85 5848 607623 0.091364573385 9.091364573385 3 45 45 135 6075
785	7163185 125 5851 607975 0.091364573385 9.096 5 45 47 229 10493
786	7163310 93 6066 607898 0.094 9.095 5 0 0 0 0
787	7163403 38 193957 607971 3.096 9.096 2 0 0 0 0
788	7163441 55 5874 607658 0.092 9.092 3 0 0 0 0
807	7163496 163 0 6777 0 0.105 10 1 2 19 37
813	7163659 84 931 601685 0.013169782835 9.013169782835 3 44 44 132 5808
816	7163743 84 931 601685 0.013169782835 9.013169782835 3 45 45 135 6075
817	7163827 84 934 601688 0.013169782835 9.013169782835 3 45 45 135 6075
818	7163911 186638 1073 673338 0.016 10 9971 0 0 0 0
820	7350549 149075 965 673338 0.014 10 7976 0 0 0 0
839	7499624 10 0 0 0 0 1 1 1 1 1
1319	7499634 93 854 601606 0.012270864309 9.012270864309 3 7504 7504 22512 168930048
1320	7499727 93 854 601606 0.012270864309 9.012270864309 3 7504 7504 22512 168930048
1322	7499820 84 854 601606 0.012270864309 9.012270864309 3 0 0 0 0
1333	7499904 84 854 601606 0.012270864309 9.012270864309 3 0 0 0 0
1343	7499988 93 928 601682 0.013169782835 9.013169782835 3 7504 7504 22512 168930048
1344	7500081 93 928 601682 0.013169782835 9.013169782835 3 7504 7504 22512 168930048
1346	7500174 84 928 601682 0.013169782835 9.013169782835 3 0 0 0 0
1357	7500258 84 928 601682 0.013169782835 9.013169782835 3 0 0 0 0
1367	7500342 93 936 601689 0.013528948517 9.013528948517 3 7504 7504 22512 168930048
1368	7500435 93 936 601689 0.013528948517 9.013528948517 3 7504 7504 22512 168930048
1370	7500528 84 936 601689 0.013528948517 9.013528948517 3 0 0 0 0
1381	7500612 84 936 601689 0.013528948517 9.013528948517 3 0 0 0 0
1391	7500696 94 1331 602266 0.021843716542 9.021843716542 3 7504 7504 22512 168930048
1392	7500790 94 1331 602266 0.021843716542 9.021843716542 3 7504 7504 22512 168930048
1394	7500884 85 1331 602266 0.021843716542 9.021843716542 3 0 0 0 0
1405	7500969 85 1331 602266 0.021843716542 9.021843716542 3 0 0 0 0
1415	7501054 94 1458 602461 0.024352218178 9.024352218178 3 7504 7504 22512 168930048
1416	7501148 94 1458 602461 0.024352218178 9.024352218178 3 7504 7504 22512 168930048
1418	7501242 85 1458 602461 0.024352218178 9.024352218178 3 0 0 0 0
1429	7501327 85 1458 602461 0.024352218178 9.024352218178 3 0 0 0 0
1439	7501412 94 1543 602545 0.025271030879 9.025271030879 3 7504 7504 22512 168930048
1440	7501506 94 1543 602545 0.025271030879 9.025271030879 3 7504 7504 22512 168930048
1442	7501600 85 1543 602545 0.025271030879 9.025271030879 3 0 0 0 0
1453	7501685 85 1543 602545 0.025271030879 9.025271030879 3 0 0 0 0
1463	7501770 94 1950 603090 0.032546852513 9.032546852513 3 7504 7504 22512 168930048
1464	7501864 94 1950 603090 0.032546852513 9.032546852513 3 7504 7504 22512 168930048
1466	7501958 85 1950 603090 0.032546852513 9.032546852513 3 0 0 0 0
1477	7502043 85 1950 603090 0.032546852513 9.032546852513 3 0 0 0 0
1487	7502128 94 2037 603217 0.034129833705 9.034129833705 3 7504 7504 22512 168930048
1488	7502222 94 2037 603217 0.034129833705 9.034129833705 3 7504 7504 22512 168930048
1490	7502316 85 2037 603217 0.034129833705 9.034129833705 3 0 0 0 0
1501	7502401 85 2037 603217 0.034129833705 9.034129833705 3 0 0 0 0
1511	7502486 94 2045 603224 0.034439526021 9.034439526021 3 7504 7504 22512 168930048
1512	7502580 94 2045 603224 0.034439526021 9.034439526021 3 7504 7504 22512 168930048
1514	7502674 85 2045 603224 0.034439526021 9.034439526021 3 0 0 0 0
1525	7502759 85 2045 603224 0.034439526021 9.034439526021 3 0 0 0 0
1535	7502844 94 2237 603450 0.037261432968 9.037261432968 3 7504 7504 22512 168930048
1536	7502938 94 2237 603450 0.037261432968 9.037261432968 3 7504 7504 22512 168930048
1538	7503032 85 2237 603450 0.037261432968 9.037261432968 3 0 0 0 0
1549	7503117 85 2237 603450 0.037261432968 9.037261432968 3 0 0 0 0
1559	7503202 94 2815 604218 0.047532676856 9.047532676856 3 7504 7504 22512 168930048
1560	7503296 94 2815 604218 0.047532676856 9.047532676856 3 7504 7504 22512 168930048
1562	7503390 85 2815 604218 0.047532676856 9.047532676856 3 0 0 0 0
1573	7503475 85 2815 604218 0.047532676856 9.047532676856 3 0 0 0 0
1583	7503560 94 2883 604303 0.048413756283 9.048413756283 3 7504 7504 22512 168930048
1584	7503654 94 2883 604303 0.048413756283 9.048413756283 3 7504 7504 22512 168930048
1586	7503748 85 2883 604303 0.048413756283 9.048413756283 3 0 0 0 0
1597	7503833 85 2883 604303 0.048413756283 9.048413756283 3 0 0 0 0
1607	7503918 94 3113 604574 0.051566809383 9.051566809383 3 7504 7504 22512 168930048
1608	7504012 94 3113 604574 0.051566809383 9.051566809383 3 7504 7504 22512 168930048
1610	7504106 85 3113 604574 0.051566809383 9.051566809383 3 0 0 0 0
1621	7504191 85 3113 604574 0.051566809383 9.051566809383 3 0 0 0 0
1631	7504276 91 3167 604649 0.05273845314 9.05273845314 3 7504 7504 22512 168930048
1632	7504367 91 3167 604649 0.05273845314 9.05273845314 3 7504 7504 22512 168930048
1634	7504458 82 3167 604649 0.05273845314 9.05273845314 3 0 0 0 0
1645	7504540 82 3167 604649 0.05273845314 9.05273845314 3 0 0 0 0
1655	7504622 94 3175 604656 0.052847558425 9.052847558425 3 7504 7504 22512 168930048
1656	7504716 94 3175 604656 0.052847558425 9.052847558425 3 7504 7504 22512 168930048
1658	7504810 85 3175 604656 0.052847558425 9.052847558425 3 0 0 0 0
1669	7504895 85 3175 604656 0.052847558425 9.052847558425 3 0 0 0 0
1679	7504980 94 3641 605067 0.057084039294 9.057084039294 3 7504 7504 22512 168930048
1680	7505074 94 3641 605067 0.057084039294 9.057084039294 3 7504 7504 22512 168930048
1682	7505168 85 3641 605067 0.057084039294 9.057084039294 3 0 0 0 0
1693	7505253 85 3641 605067 0.057084039294 9.057084039294 3 0 0 0 0
1703	7505338 94 3865 605356 0.061955560849 9.061955560849 3 7504 7504 22512 168930048
1704	7505432 94 3865 605356 0.061955560849 9.061955560849 3 7504 7504 22512 168930048
1706	7505526 85 3865 605356 0.061955560849 9.061955560849 3 0 0 0 0
1717	7505611 85 3865 605356 0.061955560849 9.061955560849 3 0 0 0 0
1727	7505696 94 4081 605605 0.064453871725 9.064453871725 3 7504 7504 22512 168930048
1728	7505790 94 4081 605605 0.064453871725 9.064453871725 3 7504 7504 22512 168930048
1730	7505884 85 4081 605605 0.064453871725 9.064453871725 3 0 0 0 0
1741	7505969 85 4081 605605 0.064453871725 9.064453871725 3 0 0 0 0
1751	7506054 94 4814 606452 0.075361895796 9.075361895796 3 7504 7504 22512 168930048
1752	7506148 94 4814 606452 0.075361895796 9.075361895796 3 7504 7504 22512 168930048
1754	7506242 85 4814 606452 0.075361895796 9.075361895796 3 0 0 0 0
1765	7506327 85 4814 606452 0.075361895796 9.075361895796 3 0 0 0 0
1775	7506412 94 5845 607620 0.091364573385 9.091364573385 3 7504 7504 22512 168930048
1776	7506506 94 5845 607620 0.091364573385 9.091364573385 3 7504 7504 22512 168930048
1778	7506600 85 5845 607620 0.091364573385 9.091364573385 3 0 0 0 0
1789	7506685 85 5845 607620 0.091364573385 9.091364573385 3 0 0 0 0
