file 1473517 1587685404                                         
version 2
run CAIN-0-20200423-20:43:10-12954
attr configname CAIN
attr datetime 20200423-20:43:10
attr experiment CAIN
attr inifile omnetpp.ini
attr iterationvars "$numUe=3, $pwr=-70, $mob=\"./movements/RWP-0.0.movements\""
attr iterationvars2 "$numUe=3, $pwr=-70, $mob=\"./movements/RWP-0.0.movements\", $repetition=0"
attr measurement "$numUe=3, $pwr=-70, $mob=\"./movements/RWP-0.0.movements\""
attr mob "\"./movements/RWP-0.0.movements\""
attr network lte.simulations.networks.CAIN
attr numUe 3
attr processid 12954
attr pwr -70
attr repetition 0
attr replication #0
attr resultdir results
attr runnumber 0
attr seedset 0
param **.**.amcMode "\"AUTO\""
param **.amcMode "\"D2D\""
param **.cainNetwork true
param **.channelControl.alpha 1.0
param **.channelControl.carrierFrequency 2100e+6Hz
param **.channelControl.pMax 10W
param **.d2dCqi 7
param **.deployer.numRbDl 50
param **.deployer.numRbUl 50
param **.distThresh 200
param **.fbDelay 1
param **.feedbackComputation "xmldoc(\"config_channel.xml\")"
param **.mobility.constraintAreaMaxX 1000m
param **.mobility.constraintAreaMaxY 1000m
param **.mobility.constraintAreaMaxZ 0m
param **.mobility.constraintAreaMinX 0m
param **.mobility.constraintAreaMinY 0m
param **.mobility.constraintAreaMinZ 0m
param **.nic.phy.channelModel "xmldoc(\"config_channel.xml\")"
param **.numBands 50
param **.pwrThresh "${pwr= -70}"
param **.qtdThresh 3
param **.rbAllocationType "\"localized\""
param **.routingRecorder.enabled false
param **.tcpApp[*].tClose -1s
param **.ueD2DTx[*].mobility.changeAngleBy "normal(0deg, 30deg)"
param **.ueD2DTx[*].mobility.changeInterval "normal(5s, 0.1s)"
param **.ueD2DTx[*].mobility.nodeId -1
param **.ueD2DTx[*].mobility.speed "normal(2mps, 0.01mps)"
param **.ueD2DTx[*].mobility.traceFile "${mob=\"./movements/RWP-0.0.movements\",\"./movements/RWP-0.5.movements\",\"./movements/RPGM-0.0.movements\",\"./movements/RPGM-0.5.movements\",\"./movements/RWPRPGM-0.0.movements\",\"./movements/RWPRPGM-0.5.movements\"}"
param **.ueD2DTx[*].mobilityType "\"BonnMotionMobility\""
param **.usePreconfiguredTxParams false
param *.eNodeB.d2dCapable false
param *.eNodeB.mobility.initFromDisplayString false
param *.eNodeB.mobility.initialX 300m
param *.eNodeB.mobility.initialY 300m
param *.eNodeB.nic.phy.enableD2DCqiReporting true
param *.eNodeB.txPower 19952.62315mw
param *.eNodeB1.d2dCapable true
param *.eNodeB1.mobility.initFromDisplayString false
param *.eNodeB1.nic.phy.enableD2DCqiReporting true
param *.eNodeB1.txPower 19952.62315mw
param *.numUeCell 0
param *.numUeD2DRx 1
param *.numUeD2DTx 1
param *.ue*.macCellId 1
param *.ue*.masterId 1
param *.ue*.mobility.initFromDisplayString false
param *.ue*[0].macCellId 1
param *.ue*[0].masterId 1
param *.ue*[0].mobility.initFromDisplayString false
param *.ueD2D*.numTcpApps 1
param *.ueD2D*[*].d2dCapable true
param *.ueD2D*[0].d2dCapable false
param *.ueD2D*[0].numTcpApps 1
param *.ueD2DRx[0].mobility.initialX 310m
param *.ueD2DRx[0].mobility.initialY 350m
param *.ueD2DRx[0].tcpApp[*].localPort 1000
param *.ueD2DRx[0].tcpApp[*].typename "\"TCPSinkApp\""
param *.ueD2DTx*.tcpApp[*].connectAddress "\"ueD2DTx[0]\""
param *.ueD2DTx*.tcpApp[*].localAddress "\"ueD2DTx\""
param *.ueD2DTx*.tcpApp[*].localPort 1000
param *.ueD2DTx*.tcpApp[*].sendBytes 1GiB
param *.ueD2DTx*.tcpApp[*].typename "\"TCPSessionApp\""
param *.ueD2DTx*.tcpApp[0].active true
param *.ueD2DTx*.tcpApp[0].connectPort 1000
param *.ueD2DTx*.tcpApp[0].tOpen uniform(0.010s,0.1s)
param *.ueD2DTx*.tcpApp[0].tSend uniform(0.15s,0.5s)
param *.ueD2DTx[0].mobility.initialX 290m
param *.ueD2DTx[0].mobility.initialY 350m
param *.ueD2DTx[0].nic.d2dPeerAddresses "\"ueD2DTx[1]\""
param *.ueD2DTx[0].tcpApp[*].localPort 1000
param *.ueD2DTx[0].tcpApp[*].sendBytes 1GiB
param *.ueD2DTx[0].tcpApp[*].typename "\"TCPSessionApp\""
param *.ueD2DTx[0].tcpApp[0].active true
param *.ueD2DTx[0].tcpApp[0].connectAddress "\"ueD2DRx[0]\""
param *.ueD2DTx[0].tcpApp[0].connectPort 1000
param *.ueD2DTx[0].tcpApp[0].localAddress "\"ueD2DTx[0]\""
param *.ueD2DTx[0].tcpApp[0].tOpen uniform(0.010s,0.1s)
param *.ueD2DTx[0].tcpApp[0].tSend uniform(0.15s,0.5s)
param *.ueD2DTx[1].nic.d2dPeerAddresses "\"ueD2DTx[0]\""

vector 8  CAIN.server.ppp[0].queue  queueLength:vector  ETV
attr interpolationmode  sample-hold
attr title  "queue length, vector"
vector 9  CAIN.server.ppp[0].ppp  txState:vector  ETV
attr interpolationmode  sample-hold
attr title  "tx state, vector"
vector 24  CAIN.router.ppp[0].queue  queueLength:vector  ETV
attr interpolationmode  sample-hold
attr title  "queue length, vector"
vector 25  CAIN.router.ppp[0].ppp  txState:vector  ETV
attr interpolationmode  sample-hold
attr title  "tx state, vector"
vector 35  CAIN.router.ppp[1].queue  queueLength:vector  ETV
attr interpolationmode  sample-hold
attr title  "queue length, vector"
vector 36  CAIN.router.ppp[1].ppp  txState:vector  ETV
attr interpolationmode  sample-hold
attr title  "tx state, vector"
vector 56  CAIN.pgw.ppp[0].queue  queueLength:vector  ETV
attr interpolationmode  sample-hold
attr title  "queue length, vector"
vector 57  CAIN.pgw.ppp[0].ppp  txState:vector  ETV
attr interpolationmode  sample-hold
attr title  "tx state, vector"
vector 67  CAIN.pgw.ppp[1].queue  queueLength:vector  ETV
attr interpolationmode  sample-hold
attr title  "queue length, vector"
vector 68  CAIN.pgw.ppp[1].ppp  txState:vector  ETV
attr interpolationmode  sample-hold
attr title  "tx state, vector"
vector 78  CAIN.pgw.pppInterface.queue  queueLength:vector  ETV
attr interpolationmode  sample-hold
attr title  "queue length, vector"
vector 79  CAIN.pgw.pppInterface.ppp  txState:vector  ETV
attr interpolationmode  sample-hold
attr title  "tx state, vector"
vector 120  CAIN.eNodeB.pppIf.queue  queueLength:vector  ETV
attr interpolationmode  sample-hold
attr title  "queue length, vector"
vector 121  CAIN.eNodeB.pppIf.ppp  txState:vector  ETV
attr interpolationmode  sample-hold
attr title  "tx state, vector"
vector 131  CAIN.eNodeB.x2ppp[0].queue  queueLength:vector  ETV
attr interpolationmode  sample-hold
attr title  "queue length, vector"
vector 132  CAIN.eNodeB.x2ppp[0].ppp  txState:vector  ETV
attr interpolationmode  sample-hold
attr title  "tx state, vector"
vector 175  CAIN.eNodeB1.pppIf.queue  queueLength:vector  ETV
attr interpolationmode  sample-hold
attr title  "queue length, vector"
vector 176  CAIN.eNodeB1.pppIf.ppp  txState:vector  ETV
attr interpolationmode  sample-hold
attr title  "tx state, vector"
vector 186  CAIN.eNodeB1.x2ppp[0].queue  queueLength:vector  ETV
attr interpolationmode  sample-hold
attr title  "queue length, vector"
vector 187  CAIN.eNodeB1.x2ppp[0].ppp  txState:vector  ETV
attr interpolationmode  sample-hold
attr title  "tx state, vector"
vector 225  CAIN.ueD2DTx[0].nic.phy  servingCell:vector  ETV
attr source  servingCell
attr title  "ID of the serving eNodeB for the UE, vector"
attr unit  ""
vector 257  CAIN.ueD2DTx[1].nic.phy  servingCell:vector  ETV
attr source  servingCell
attr title  "ID of the serving eNodeB for the UE, vector"
attr unit  ""
vector 289  CAIN.ueD2DTx[2].nic.phy  servingCell:vector  ETV
attr source  servingCell
attr title  "ID of the serving eNodeB for the UE, vector"
attr unit  ""
vector 96  CAIN.eNodeB.nic.mac  receivedPacketFromLowerLayer:vector(packetBytes)  ETV
attr interpolationmode  none
attr source  receivedPacketFromLowerLayer
vector 307  CAIN.ueD2DTx[1].tcp  tcpRcvQueueBytes  ETV
vector 294  CAIN.ueD2DTx[1].tcp  "advertised window"  ETV
vector 293  CAIN.ueD2DTx[1].tcp  "receive window"  ETV
vector 296  CAIN.ueD2DTx[1].tcp  "sent ack"  ETV
vector 231  CAIN.ueD2DTx[1].nic.pdcpRrc  receivedPacketFromUpperLayer:vector(packetBytes)  ETV
attr interpolationmode  none
attr source  receivedPacketFromUpperLayer
vector 234  CAIN.ueD2DTx[1].nic.pdcpRrc  sentPacketToLowerLayer:vector(packetBytes)  ETV
attr interpolationmode  none
attr source  sentPacketToLowerLayer
vector 235  CAIN.ueD2DTx[1].nic.mac  receivedPacketFromUpperLayer:vector(packetBytes)  ETV
attr interpolationmode  none
attr source  receivedPacketFromUpperLayer
vector 238  CAIN.ueD2DTx[1].nic.mac  sentPacketToLowerLayer:vector(packetBytes)  ETV
attr interpolationmode  none
attr source  sentPacketToLowerLayer
vector 111  CAIN.eNodeB.nic.mac  racpkt:vector  ETV
attr interpolationmode  none
attr title  "eNB received racpkt message, vector"
vector 112  CAIN.eNodeB.nic.mac  racDistanceSignal:vector  ETV
attr interpolationmode  none
attr title  "Rac distance to enb, vector"
vector 113  CAIN.eNodeB.nic.mac  racServedDevsSignal:vector  ETV
attr interpolationmode  none
attr title  "# of devices served on rac arriavall, vector"
vector 98  CAIN.eNodeB.nic.mac  sentPacketToLowerLayer:vector(packetBytes)  ETV
attr interpolationmode  none
attr source  sentPacketToLowerLayer
vector 236  CAIN.ueD2DTx[1].nic.mac  receivedPacketFromLowerLayer:vector(packetBytes)  ETV
attr interpolationmode  none
attr source  receivedPacketFromLowerLayer
vector 115  CAIN.eNodeB.nic.phy  averageCqiUlvect:vector  ETV
attr source  averageCqiUlvect
attr title  "Average Cqi reported in UL, vector"
attr unit  cqi
vector 244  CAIN.ueD2DTx[1].nic.mac  CainMessageSent:vector  ETV
attr interpolationmode  none
attr title  "# of Sent CAIN message, vector"
vector 268  CAIN.ueD2DTx[2].nic.mac  receivedPacketFromLowerLayer:vector(packetBytes)  ETV
attr interpolationmode  none
attr source  receivedPacketFromLowerLayer
vector 270  CAIN.ueD2DTx[2].nic.mac  sentPacketToLowerLayer:vector(packetBytes)  ETV
attr interpolationmode  none
attr source  sentPacketToLowerLayer
vector 106  CAIN.eNodeB.nic.mac  DistanceSignal:vector  ETV
attr interpolationmode  none
attr title  "Distance to enb, vector"
vector 100  CAIN.eNodeB.nic.mac  CainMessage:vector  ETV
attr interpolationmode  none
attr title  "eNB received CAIN message, vector"
vector 274  CAIN.ueD2DTx[2].nic.mac  DropedCainMessage:vector  ETV
attr interpolationmode  none
attr title  "Droped CAIN message due to RB not available, vector"
vector 331  CAIN.ueD2DTx[0].tcp  tcpRcvQueueBytes  ETV
vector 318  CAIN.ueD2DTx[0].tcp  "advertised window"  ETV
vector 317  CAIN.ueD2DTx[0].tcp  "receive window"  ETV
vector 320  CAIN.ueD2DTx[0].tcp  "sent ack"  ETV
vector 199  CAIN.ueD2DTx[0].nic.pdcpRrc  receivedPacketFromUpperLayer:vector(packetBytes)  ETV
attr interpolationmode  none
attr source  receivedPacketFromUpperLayer
vector 202  CAIN.ueD2DTx[0].nic.pdcpRrc  sentPacketToLowerLayer:vector(packetBytes)  ETV
attr interpolationmode  none
attr source  sentPacketToLowerLayer
vector 203  CAIN.ueD2DTx[0].nic.mac  receivedPacketFromUpperLayer:vector(packetBytes)  ETV
attr interpolationmode  none
attr source  receivedPacketFromUpperLayer
vector 212  CAIN.ueD2DTx[0].nic.mac  CainMessageSent:vector  ETV
attr interpolationmode  none
attr title  "# of Sent CAIN message, vector"
vector 206  CAIN.ueD2DTx[0].nic.mac  sentPacketToLowerLayer:vector(packetBytes)  ETV
attr interpolationmode  none
attr source  sentPacketToLowerLayer
vector 355  CAIN.ueD2DTx[2].tcp  tcpRcvQueueBytes  ETV
vector 342  CAIN.ueD2DTx[2].tcp  "advertised window"  ETV
vector 341  CAIN.ueD2DTx[2].tcp  "receive window"  ETV
vector 344  CAIN.ueD2DTx[2].tcp  "sent ack"  ETV
vector 263  CAIN.ueD2DTx[2].nic.pdcpRrc  receivedPacketFromUpperLayer:vector(packetBytes)  ETV
attr interpolationmode  none
attr source  receivedPacketFromUpperLayer
vector 266  CAIN.ueD2DTx[2].nic.pdcpRrc  sentPacketToLowerLayer:vector(packetBytes)  ETV
attr interpolationmode  none
attr source  sentPacketToLowerLayer
vector 267  CAIN.ueD2DTx[2].nic.mac  receivedPacketFromUpperLayer:vector(packetBytes)  ETV
attr interpolationmode  none
attr source  receivedPacketFromUpperLayer
vector 213  CAIN.ueD2DTx[0].nic.mac  CainHopMessageSent:vector  ETV
attr interpolationmode  none
attr title  "# of Sent CAIN hop message, vector"
vector 101  CAIN.eNodeB.nic.mac  CainHopMessage:vector  ETV
attr interpolationmode  none
attr title  "eNB received CAIN hop message, vector"
vector 275  CAIN.ueD2DTx[2].nic.mac  DropedHopMessage:vector  ETV
attr interpolationmode  none
attr title  "Droped Hop CAIN message due to RB not available, vector"
vector 269  CAIN.ueD2DTx[2].nic.mac  sentPacketToUpperLayer:vector(packetBytes)  ETV
attr interpolationmode  none
attr source  sentPacketToUpperLayer
vector 108  CAIN.eNodeB.nic.mac  ServedDevs:vector  ETV
attr interpolationmode  none
attr title  "# of devices served on cain forwarding, vector"
vector 109  CAIN.eNodeB.nic.mac  ServedHopDevs:vector  ETV
attr interpolationmode  none
attr title  "# of devices served on hop forwarding, vector"
vector 276  CAIN.ueD2DTx[2].nic.mac  CainMessageSent:vector  ETV
attr interpolationmode  none
attr title  "# of Sent CAIN message, vector"
vector 204  CAIN.ueD2DTx[0].nic.mac  receivedPacketFromLowerLayer:vector(packetBytes)  ETV
attr interpolationmode  none
attr source  receivedPacketFromLowerLayer
vector 99  CAIN.eNodeB.nic.mac  measuredItbs:vector  ETV
attr source  measuredItbs
attr title  "TBS index, vector"
attr unit  ""
vector 97  CAIN.eNodeB.nic.mac  sentPacketToUpperLayer:vector(packetBytes)  ETV
attr interpolationmode  none
attr source  sentPacketToUpperLayer
vector 92  CAIN.eNodeB.nic.pdcpRrc  receivedPacketFromLowerLayer:vector(packetBytes)  ETV
attr interpolationmode  none
attr source  receivedPacketFromLowerLayer
vector 93  CAIN.eNodeB.nic.pdcpRrc  sentPacketToUpperLayer:vector(packetBytes)  ETV
attr interpolationmode  none
attr source  sentPacketToUpperLayer
vector 91  CAIN.eNodeB.nic.pdcpRrc  receivedPacketFromUpperLayer:vector(packetBytes)  ETV
attr interpolationmode  none
attr source  receivedPacketFromUpperLayer
vector 94  CAIN.eNodeB.nic.pdcpRrc  sentPacketToLowerLayer:vector(packetBytes)  ETV
attr interpolationmode  none
attr source  sentPacketToLowerLayer
vector 95  CAIN.eNodeB.nic.mac  receivedPacketFromUpperLayer:vector(packetBytes)  ETV
attr interpolationmode  none
attr source  receivedPacketFromUpperLayer
vector 222  CAIN.ueD2DTx[0].nic.phy  averageCqiDlvect:vector  ETV
attr source  averageCqiDlvect
attr title  "Average Cqi reported in DL, vector"
attr unit  cqi
vector 205  CAIN.ueD2DTx[0].nic.mac  sentPacketToUpperLayer:vector(packetBytes)  ETV
attr interpolationmode  none
attr source  sentPacketToUpperLayer
vector 200  CAIN.ueD2DTx[0].nic.pdcpRrc  receivedPacketFromLowerLayer:vector(packetBytes)  ETV
attr interpolationmode  none
attr source  receivedPacketFromLowerLayer
vector 201  CAIN.ueD2DTx[0].nic.pdcpRrc  sentPacketToUpperLayer:vector(packetBytes)  ETV
attr interpolationmode  none
attr source  sentPacketToUpperLayer
8	14539 8 0 0 0 0 1 0 0 0 0
9	14547 8 0 0 0 0 1 0 0 0 0
24	14555 9 0 0 0 0 1 0 0 0 0
25	14564 9 0 0 0 0 1 0 0 0 0
35	14573 9 0 0 0 0 1 0 0 0 0
36	14582 9 0 0 0 0 1 0 0 0 0
56	14591 9 0 0 0 0 1 0 0 0 0
57	14600 9 0 0 0 0 1 0 0 0 0
67	14609 9 0 0 0 0 1 0 0 0 0
68	14618 9 0 0 0 0 1 0 0 0 0
78	14627 9 0 0 0 0 1 0 0 0 0
79	14636 9 0 0 0 0 1 0 0 0 0
91	14645 18 71037 71037 4.609 4.609 1 44 44 44 1936
92	14663 18 71032 71032 4.609 4.609 1 45 45 45 2025
93	14681 18 71032 71032 4.609 4.609 1 44 44 44 1936
94	14699 18 71037 71037 4.609 4.609 1 45 45 45 2025
95	14717 36 71040 71046 4.609 4.609 2 45 47 92 4234
96	14753 227222 54 154131 0.002 10 13259 0 0 0 0
97	241975 35 55827 71041 3.609 4.609 2 0 47 47 2209
98	242010 122436 371 154131 0.034 10 7142 0 0 0 0
99	364446 85 15934 71041 1.005 4.609 5 0 0 0 0
100	364531 30293 510 154048 0.045 9.995 1499 1 1499 1124250 1123875250
101	394824 22647 880 153828 0.071 9.981 1116 1 1116 623286 463932546
106	417471 102791 510 154081 0.045 9.997 5090 865 872 4430877 3857112797
108	520262 25766 4692 154081 0.317 9.997 1408 2 3 4223 12667
109	546028 19536 4707 153858 0.318 9.983 1067 3 3 3201 9603
111	565564 145143 371 154131 0.034 10 6900 1 6900 23808450 109526806150
112	710707 139350 371 154131 0.034 10 6900 469 655 3269265 1549638067
113	850057 125550 371 154131 0.034 10 6900 0 0 0 0
115	975607 24628 424 154117 0.038 9.999 1357 2 2 2714 5428
120	1000235 10 0 0 0 0 1 0 0 0 0
121	1000245 10 0 0 0 0 1 0 0 0 0
131	1000255 10 0 0 0 0 1 0 0 0 0
132	1000265 10 0 0 0 0 1 0 0 0 0
175	1000275 10 0 0 0 0 1 0 0 0 0
176	1000285 10 0 0 0 0 1 0 0 0 0
186	1000295 10 0 0 0 0 1 0 0 0 0
187	1000305 10 0 0 0 0 1 0 0 0 0
199	1000315 83 662 138615 0.057084039294 9.057084039294 3 44 44 132 5808
200	1000398 19 71118 71118 4.613 4.613 1 45 45 45 2025
201	1000417 19 71118 71118 4.613 4.613 1 44 44 44 1936
202	1000436 83 662 138615 0.057084039294 9.057084039294 3 45 45 135 6075
203	1000519 83 665 138618 0.057084039294 9.057084039294 3 45 45 135 6075
204	1000602 262 8012 152656 0.52 9.91 15 0 0 0 0
205	1000864 19 71113 71113 4.613 4.613 1 47 47 47 2209
206	1000883 36395 668 154084 0.058 9.998 1990 0 0 0 0
212	1037278 17307 668 154009 0.058 9.993 858 1 858 368511 210911129
213	1054585 22667 823 154084 0.068 9.998 1117 1 1117 624403 465180235
222	1077252 17 71079 71079 4.61 4.61 1 2 2 2 4
225	1077269 10 0 0 0 0 1 1 1 1 1
231	1077279 83 351 138235 0.032546852513 9.032546852513 3 44 44 132 5808
234	1077362 83 351 138235 0.032546852513 9.032546852513 3 45 45 135 6075
235	1077445 83 354 138238 0.032546852513 9.032546852513 3 45 45 135 6075
236	1077528 93068 382 154115 0.035 9.999 5117 0 0 0 0
238	1170596 80859 358 154115 0.033 9.999 4445 0 0 0 0
244	1251455 12638 476 153785 0.043 9.979 633 1 633 200661 84745829
257	1264093 10 0 0 0 0 1 1 1 1 1
263	1264103 83 769 138724 0.064453871725 9.064453871725 3 44 44 132 5808
266	1264186 83 769 138724 0.064453871725 9.064453871725 3 45 45 135 6075
267	1264269 322 772 152554 0.064453871725 9.905 16 0 47 229 10493
268	1264591 104179 500 154134 0.044 10 5742 0 0 0 0
269	1368770 237 4623 152550 0.314 9.905 13 0 0 0 0
270	1369007 100752 500 154134 0.044 10 5557 0 0 0 0
274	1469759 1676 521 152492 0.046 9.901 91 1 91 4186 255346
275	1471435 911 899 152359 0.072 9.892 49 1 49 1225 40425
276	1472346 147 4731 152677 0.32 9.912 8 1 8 36 204
289	1472493 10 0 0 0 0 1 1 1 1 1
293	1472503 89 348 138232 0.032546852513 9.032546852513 3 7504 7504 22512 168930048
294	1472592 89 348 138232 0.032546852513 9.032546852513 3 7504 7504 22512 168930048
296	1472681 80 348 138232 0.032546852513 9.032546852513 3 0 0 0 0
307	1472761 80 348 138232 0.032546852513 9.032546852513 3 0 0 0 0
317	1472841 89 659 138612 0.057084039294 9.057084039294 3 7504 7504 22512 168930048
318	1472930 89 659 138612 0.057084039294 9.057084039294 3 7504 7504 22512 168930048
320	1473019 80 659 138612 0.057084039294 9.057084039294 3 0 0 0 0
331	1473099 80 659 138612 0.057084039294 9.057084039294 3 0 0 0 0
341	1473179 89 766 138721 0.064453871725 9.064453871725 3 7504 7504 22512 168930048
342	1473268 89 766 138721 0.064453871725 9.064453871725 3 7504 7504 22512 168930048
344	1473357 80 766 138721 0.064453871725 9.064453871725 3 0 0 0 0
355	1473437 80 766 138721 0.064453871725 9.064453871725 3 0 0 0 0
