version 2
run CAIN-0-20200504-21:05:59-30485
attr configname CAIN
attr datetime 20200504-21:05:59
attr dist 200
attr experiment CAIN
attr extAllocType "\"FULL_ALLOC\""
attr inifile omnetpp.ini
attr iterationvars "$numUe=3, $dist=200, $extAllocType=\"FULL_ALLOC\""
attr iterationvars2 "$numUe=3, $dist=200, $extAllocType=\"FULL_ALLOC\", $repetition=0"
attr measurement "$numUe=3, $dist=200, $extAllocType=\"FULL_ALLOC\""
attr network lte.simulations.networks.CAIN
attr numUe 3
attr processid 30485
attr repetition 0
attr replication #0
attr resultdir results
attr runnumber 0
attr seedset 0
param **.**.amcMode "\"AUTO\""
param **.amcMode "\"D2D\""
param **.cainNetwork true
param **.channelControl.alpha 1.0
param **.channelControl.carrierFrequency 2100e+6Hz
param **.channelControl.pMax 10W
param **.d2dCqi 7
param **.deployer.numRbDl 50
param **.deployer.numRbUl 50
param **.distThresh ${dist=200}
param **.fbDelay 1
param **.feedbackComputation "xmldoc(\"config_channel.xml\")"
param **.mobility.constraintAreaMaxX 1000m
param **.mobility.constraintAreaMaxY 1000m
param **.mobility.constraintAreaMaxZ 0m
param **.mobility.constraintAreaMinX 0m
param **.mobility.constraintAreaMinY 0m
param **.mobility.constraintAreaMinZ 0m
param **.nic.phy.channelModel "xmldoc(\"config_channel.xml\")"
param **.numBands 50
param **.qtdThresh 3
param **.rbAllocationType "\"localized\""
param **.routingRecorder.enabled false
param **.tcpApp[*].tClose -1s
param **.ueD2DTx[*].mobility.changeAngleBy "normal(0deg, 30deg)"
param **.ueD2DTx[*].mobility.changeInterval "normal(5s, 0.1s)"
param **.ueD2DTx[*].mobility.speed "normal(2mps, 0.01mps)"
param **.ueD2DTx[*].mobilityType "\"RandomWPMobility\""
param **.usePreconfiguredTxParams false
param *.eNodeB*.numX2Apps 1
param *.eNodeB*.x2App[*].server.localPort "5000 + ancestorIndex(1)"
param *.eNodeB.d2dCapable false
param *.eNodeB.mobility.initFromDisplayString false
param *.eNodeB.mobility.initialX 300m
param *.eNodeB.mobility.initialY 300m
param *.eNodeB.nic.phy.enableD2DCqiReporting true
param *.eNodeB.txPower 19952.62315mw
param *.eNodeB.x2App[0].client.connectAddress "\"eNodeB1%x2ppp0\""
param *.eNodeB1.d2dCapable true
param *.eNodeB1.mobility.initFromDisplayString false
param *.eNodeB1.mobility.initialX 700m
param *.eNodeB1.mobility.initialY 300m
param *.eNodeB1.nic.phy.enableD2DCqiReporting true
param *.eNodeB1.txPower 19952.62315mw
param *.eNodeB1.x2App[0].client.connectAddress "\"eNodeB%x2ppp0\""
param *.extCell[*].bandAllocationType "${extAllocType=\"FULL_ALLOC\",\"RANDOM_ALLOC\",\"CONTIGUOUS_ALLOC\"}"
param *.extCell[*].bandUtilization 0.5
param *.extCell[*].txDirection "\"ANISOTROPIC\""
param *.extCell[*].txPower 20
param *.extCell[0].position_x 100m
param *.extCell[0].position_y 600m
param *.extCell[0].txAngle 315
param *.extCell[1].position_x 600m
param *.extCell[1].position_y 600m
param *.extCell[1].txAngle 225
param *.numExtCells 2
param *.numUeCell 0
param *.numUeD2DRx 1
param *.numUeD2DTx 1
param *.ue*.macCellId 1
param *.ue*.masterId 1
param *.ue*.mobility.initFromDisplayString false
param *.ue*[0].macCellId 1
param *.ue*[0].masterId 1
param *.ue*[0].mobility.initFromDisplayString false
param *.ueD2D*.numTcpApps 1
param *.ueD2D*[*].d2dCapable true
param *.ueD2D*[0].d2dCapable false
param *.ueD2D*[0].numTcpApps 1
param *.ueD2DRx[0].mobility.initialX 310m
param *.ueD2DRx[0].mobility.initialY 350m
param *.ueD2DRx[0].tcpApp[*].localPort 1000
param *.ueD2DRx[0].tcpApp[*].typename "\"TCPSinkApp\""
param *.ueD2DTx*.tcpApp[*].connectAddress "\"ueD2DTx[0]\""
param *.ueD2DTx*.tcpApp[*].localAddress "\"ueD2DTx\""
param *.ueD2DTx*.tcpApp[*].localPort 1000
param *.ueD2DTx*.tcpApp[*].sendBytes 1GiB
param *.ueD2DTx*.tcpApp[*].typename "\"TCPSessionApp\""
param *.ueD2DTx*.tcpApp[0].active true
param *.ueD2DTx*.tcpApp[0].connectPort 1000
param *.ueD2DTx*.tcpApp[0].tOpen uniform(0.010s,0.1s)
param *.ueD2DTx*.tcpApp[0].tSend uniform(0.15s,0.5s)
param *.ueD2DTx[0].mobility.initialX 290m
param *.ueD2DTx[0].mobility.initialY 350m
param *.ueD2DTx[0].nic.d2dPeerAddresses "\"ueD2DTx[1]\""
param *.ueD2DTx[0].tcpApp[*].localPort 1000
param *.ueD2DTx[0].tcpApp[*].sendBytes 1GiB
param *.ueD2DTx[0].tcpApp[*].typename "\"TCPSessionApp\""
param *.ueD2DTx[0].tcpApp[0].active true
param *.ueD2DTx[0].tcpApp[0].connectAddress "\"ueD2DRx[0]\""
param *.ueD2DTx[0].tcpApp[0].connectPort 1000
param *.ueD2DTx[0].tcpApp[0].localAddress "\"ueD2DTx[0]\""
param *.ueD2DTx[0].tcpApp[0].tOpen uniform(0.010s,0.1s)
param *.ueD2DTx[0].tcpApp[0].tSend uniform(0.15s,0.5s)
param *.ueD2DTx[1].mobility.initialX 690m
param *.ueD2DTx[1].mobility.initialY 250m
param *.ueD2DTx[1].nic.d2dPeerAddresses "\"ueD2DTx[0]\""

vector 854  CAIN.server.ppp[0].queue  queueLength:vector  ETV
attr interpolationmode  sample-hold
attr title  "queue length, vector"
vector 855  CAIN.server.ppp[0].ppp  txState:vector  ETV
attr interpolationmode  sample-hold
attr title  "tx state, vector"
vector 870  CAIN.router.ppp[0].queue  queueLength:vector  ETV
attr interpolationmode  sample-hold
attr title  "queue length, vector"
vector 871  CAIN.router.ppp[0].ppp  txState:vector  ETV
attr interpolationmode  sample-hold
attr title  "tx state, vector"
vector 881  CAIN.router.ppp[1].queue  queueLength:vector  ETV
attr interpolationmode  sample-hold
attr title  "queue length, vector"
vector 882  CAIN.router.ppp[1].ppp  txState:vector  ETV
attr interpolationmode  sample-hold
attr title  "tx state, vector"
vector 902  CAIN.pgw.ppp[0].queue  queueLength:vector  ETV
attr interpolationmode  sample-hold
attr title  "queue length, vector"
vector 903  CAIN.pgw.ppp[0].ppp  txState:vector  ETV
attr interpolationmode  sample-hold
attr title  "tx state, vector"
vector 913  CAIN.pgw.ppp[1].queue  queueLength:vector  ETV
attr interpolationmode  sample-hold
attr title  "queue length, vector"
vector 914  CAIN.pgw.ppp[1].ppp  txState:vector  ETV
attr interpolationmode  sample-hold
attr title  "tx state, vector"
vector 924  CAIN.pgw.pppInterface.queue  queueLength:vector  ETV
attr interpolationmode  sample-hold
attr title  "queue length, vector"
vector 925  CAIN.pgw.pppInterface.ppp  txState:vector  ETV
attr interpolationmode  sample-hold
attr title  "tx state, vector"
vector 966  CAIN.eNodeB.pppIf.queue  queueLength:vector  ETV
attr interpolationmode  sample-hold
attr title  "queue length, vector"
vector 967  CAIN.eNodeB.pppIf.ppp  txState:vector  ETV
attr interpolationmode  sample-hold
attr title  "tx state, vector"
vector 977  CAIN.eNodeB.x2ppp[0].queue  queueLength:vector  ETV
attr interpolationmode  sample-hold
attr title  "queue length, vector"
vector 978  CAIN.eNodeB.x2ppp[0].ppp  txState:vector  ETV
attr interpolationmode  sample-hold
attr title  "tx state, vector"
vector 1024  CAIN.eNodeB1.pppIf.queue  queueLength:vector  ETV
attr interpolationmode  sample-hold
attr title  "queue length, vector"
vector 1025  CAIN.eNodeB1.pppIf.ppp  txState:vector  ETV
attr interpolationmode  sample-hold
attr title  "tx state, vector"
vector 1035  CAIN.eNodeB1.x2ppp[0].queue  queueLength:vector  ETV
attr interpolationmode  sample-hold
attr title  "queue length, vector"
vector 1036  CAIN.eNodeB1.x2ppp[0].ppp  txState:vector  ETV
attr interpolationmode  sample-hold
attr title  "tx state, vector"
vector 1077  CAIN.ueD2DTx[0].nic.phy  servingCell:vector  ETV
attr source  servingCell
attr title  "ID of the serving eNodeB for the UE, vector"
attr unit  ""
vector 1109  CAIN.ueD2DTx[1].nic.phy  servingCell:vector  ETV
attr source  servingCell
attr title  "ID of the serving eNodeB for the UE, vector"
attr unit  ""
vector 1141  CAIN.ueD2DTx[2].nic.phy  servingCell:vector  ETV
attr source  servingCell
attr title  "ID of the serving eNodeB for the UE, vector"
attr unit  ""
vector 1165  CAIN.eNodeB.sctp  "Throughput of Association 9"  ETV
vector 1187  CAIN.eNodeB1.sctp  "Throughput of Association 10"  ETV
vector 1209  CAIN.eNodeB.sctp  "Throughput of Association 7"  ETV
vector 1229  CAIN.eNodeB.sctp  "Fast Recovery State 7:10.0.5.2"  ETV
vector 1258  CAIN.eNodeB1.sctp  "Throughput of Association 8"  ETV
vector 1278  CAIN.eNodeB1.sctp  "Fast Recovery State 8:10.0.5.1"  ETV
vector 974  CAIN.eNodeB.x2ppp[0].queue  rcvdPk:vector(packetBytes)  ETV
attr interpolationmode  none
attr title  "received packets, vector(packetBytes)"
vector 976  CAIN.eNodeB.x2ppp[0].queue  queueingTime:vector  ETV
attr interpolationmode  none
attr title  "queueing time, vector"
vector 1032  CAIN.eNodeB1.x2ppp[0].queue  rcvdPk:vector(packetBytes)  ETV
attr interpolationmode  none
attr title  "received packets, vector(packetBytes)"
vector 1034  CAIN.eNodeB1.x2ppp[0].queue  queueingTime:vector  ETV
attr interpolationmode  none
attr title  "queueing time, vector"
vector 983  CAIN.eNodeB.x2ppp[0].ppp  rcvdPkFromHL:vector(packetBytes)  ETV
attr interpolationmode  none
attr source  packetReceivedFromUpper
attr title  "packets received from higher layer, vector(packetBytes)"
vector 979  CAIN.eNodeB.x2ppp[0].ppp  txPk:vector(packetBytes)  ETV
attr interpolationmode  none
attr source  packetSentToLower
attr title  "packets transmitted, vector(packetBytes)"
vector 1041  CAIN.eNodeB1.x2ppp[0].ppp  rcvdPkFromHL:vector(packetBytes)  ETV
attr interpolationmode  none
attr source  packetReceivedFromUpper
attr title  "packets received from higher layer, vector(packetBytes)"
vector 1037  CAIN.eNodeB1.x2ppp[0].ppp  txPk:vector(packetBytes)  ETV
attr interpolationmode  none
attr source  packetSentToLower
attr title  "packets transmitted, vector(packetBytes)"
vector 1038  CAIN.eNodeB1.x2ppp[0].ppp  rxPkOk:vector(packetBytes)  ETV
attr interpolationmode  none
attr source  rxPkOk
attr title  "packets received OK, vector(packetBytes)"
vector 1042  CAIN.eNodeB1.x2ppp[0].ppp  passedUpPk:vector(packetBytes)  ETV
attr interpolationmode  none
attr source  packetSentToUpper
attr title  "packets passed to higher layer, vector(packetBytes)"
vector 980  CAIN.eNodeB.x2ppp[0].ppp  rxPkOk:vector(packetBytes)  ETV
attr interpolationmode  none
attr source  rxPkOk
attr title  "packets received OK, vector(packetBytes)"
vector 984  CAIN.eNodeB.x2ppp[0].ppp  passedUpPk:vector(packetBytes)  ETV
attr interpolationmode  none
attr source  packetSentToUpper
attr title  "packets passed to higher layer, vector(packetBytes)"
vector 1307  CAIN.eNodeB1.sctp  "Throughput of Association 10"  ETV
vector 1184  CAIN.eNodeB1.sctp  "Peer Rwnd 10"  ETV
vector 1327  CAIN.eNodeB1.sctp  "Fast Recovery State 11:10.0.4.1"  ETV
vector 1354  CAIN.eNodeB1.sctp  "Fast Recovery State 11:10.0.2.2"  ETV
vector 1381  CAIN.eNodeB1.sctp  "Fast Recovery State 11:10.0.5.1"  ETV
vector 1410  CAIN.eNodeB.sctp  "Throughput of Association 9"  ETV
vector 1162  CAIN.eNodeB.sctp  "Peer Rwnd 9"  ETV
vector 1430  CAIN.eNodeB.sctp  "Fast Recovery State 12:10.0.4.2"  ETV
vector 1457  CAIN.eNodeB.sctp  "Fast Recovery State 12:10.0.3.2"  ETV
vector 1484  CAIN.eNodeB.sctp  "Fast Recovery State 12:10.0.5.2"  ETV
vector 1206  CAIN.eNodeB.sctp  "Peer Rwnd 7"  ETV
vector 1511  CAIN.eNodeB.sctp  "Fast Recovery State 7:10.0.4.2"  ETV
vector 1538  CAIN.eNodeB.sctp  "Fast Recovery State 7:10.0.3.2"  ETV
vector 1255  CAIN.eNodeB1.sctp  "Peer Rwnd 8"  ETV
vector 1565  CAIN.eNodeB1.sctp  "Fast Recovery State 8:10.0.4.1"  ETV
vector 1592  CAIN.eNodeB1.sctp  "Fast Recovery State 8:10.0.2.2"  ETV
vector 1337  CAIN.eNodeB1.sctp  "Slow Start Threshold 11:10.0.2.2"  ETV
vector 1338  CAIN.eNodeB1.sctp  "Congestion Window 11:10.0.2.2"  ETV
vector 1339  CAIN.eNodeB1.sctp  "Bandwidth 11:10.0.2.2"  ETV
vector 1342  CAIN.eNodeB1.sctp  "HB Sent 11:10.0.2.2"  ETV
vector 1335  CAIN.eNodeB1.sctp  "RTO 11:10.0.2.2"  ETV
vector 1310  CAIN.eNodeB1.sctp  "Slow Start Threshold 11:10.0.4.1"  ETV
vector 1311  CAIN.eNodeB1.sctp  "Congestion Window 11:10.0.4.1"  ETV
vector 1312  CAIN.eNodeB1.sctp  "Bandwidth 11:10.0.4.1"  ETV
vector 1315  CAIN.eNodeB1.sctp  "HB Sent 11:10.0.4.1"  ETV
vector 1308  CAIN.eNodeB1.sctp  "RTO 11:10.0.4.1"  ETV
vector 1364  CAIN.eNodeB1.sctp  "Slow Start Threshold 11:10.0.5.1"  ETV
vector 1365  CAIN.eNodeB1.sctp  "Congestion Window 11:10.0.5.1"  ETV
vector 1366  CAIN.eNodeB1.sctp  "Bandwidth 11:10.0.5.1"  ETV
vector 1362  CAIN.eNodeB1.sctp  "RTO 11:10.0.5.1"  ETV
vector 1440  CAIN.eNodeB.sctp  "Slow Start Threshold 12:10.0.3.2"  ETV
vector 1441  CAIN.eNodeB.sctp  "Congestion Window 12:10.0.3.2"  ETV
vector 1442  CAIN.eNodeB.sctp  "Bandwidth 12:10.0.3.2"  ETV
vector 1445  CAIN.eNodeB.sctp  "HB Sent 12:10.0.3.2"  ETV
vector 1438  CAIN.eNodeB.sctp  "RTO 12:10.0.3.2"  ETV
vector 1413  CAIN.eNodeB.sctp  "Slow Start Threshold 12:10.0.4.2"  ETV
vector 1414  CAIN.eNodeB.sctp  "Congestion Window 12:10.0.4.2"  ETV
vector 1415  CAIN.eNodeB.sctp  "Bandwidth 12:10.0.4.2"  ETV
vector 1418  CAIN.eNodeB.sctp  "HB Sent 12:10.0.4.2"  ETV
vector 1411  CAIN.eNodeB.sctp  "RTO 12:10.0.4.2"  ETV
vector 1467  CAIN.eNodeB.sctp  "Slow Start Threshold 12:10.0.5.2"  ETV
vector 1468  CAIN.eNodeB.sctp  "Congestion Window 12:10.0.5.2"  ETV
vector 1469  CAIN.eNodeB.sctp  "Bandwidth 12:10.0.5.2"  ETV
vector 1465  CAIN.eNodeB.sctp  "RTO 12:10.0.5.2"  ETV
vector 1218  CAIN.eNodeB.sctp  "HB ACK Sent 7:10.0.5.2"  ETV
vector 1219  CAIN.eNodeB.sctp  "HB Received 7:10.0.5.2"  ETV
vector 1267  CAIN.eNodeB1.sctp  "HB ACK Sent 8:10.0.5.1"  ETV
vector 1268  CAIN.eNodeB1.sctp  "HB Received 8:10.0.5.1"  ETV
vector 1521  CAIN.eNodeB.sctp  "Slow Start Threshold 7:10.0.3.2"  ETV
vector 1522  CAIN.eNodeB.sctp  "Congestion Window 7:10.0.3.2"  ETV
vector 1523  CAIN.eNodeB.sctp  "Bandwidth 7:10.0.3.2"  ETV
vector 1526  CAIN.eNodeB.sctp  "HB Sent 7:10.0.3.2"  ETV
vector 1519  CAIN.eNodeB.sctp  "RTO 7:10.0.3.2"  ETV
vector 1494  CAIN.eNodeB.sctp  "Slow Start Threshold 7:10.0.4.2"  ETV
vector 1495  CAIN.eNodeB.sctp  "Congestion Window 7:10.0.4.2"  ETV
vector 1496  CAIN.eNodeB.sctp  "Bandwidth 7:10.0.4.2"  ETV
vector 1499  CAIN.eNodeB.sctp  "HB Sent 7:10.0.4.2"  ETV
vector 1492  CAIN.eNodeB.sctp  "RTO 7:10.0.4.2"  ETV
vector 1212  CAIN.eNodeB.sctp  "Slow Start Threshold 7:10.0.5.2"  ETV
vector 1213  CAIN.eNodeB.sctp  "Congestion Window 7:10.0.5.2"  ETV
vector 1214  CAIN.eNodeB.sctp  "Bandwidth 7:10.0.5.2"  ETV
vector 1210  CAIN.eNodeB.sctp  "RTO 7:10.0.5.2"  ETV
vector 1575  CAIN.eNodeB1.sctp  "Slow Start Threshold 8:10.0.2.2"  ETV
vector 1576  CAIN.eNodeB1.sctp  "Congestion Window 8:10.0.2.2"  ETV
vector 1577  CAIN.eNodeB1.sctp  "Bandwidth 8:10.0.2.2"  ETV
vector 1580  CAIN.eNodeB1.sctp  "HB Sent 8:10.0.2.2"  ETV
vector 1573  CAIN.eNodeB1.sctp  "RTO 8:10.0.2.2"  ETV
vector 1548  CAIN.eNodeB1.sctp  "Slow Start Threshold 8:10.0.4.1"  ETV
vector 1549  CAIN.eNodeB1.sctp  "Congestion Window 8:10.0.4.1"  ETV
vector 1550  CAIN.eNodeB1.sctp  "Bandwidth 8:10.0.4.1"  ETV
vector 1553  CAIN.eNodeB1.sctp  "HB Sent 8:10.0.4.1"  ETV
vector 1546  CAIN.eNodeB1.sctp  "RTO 8:10.0.4.1"  ETV
vector 1261  CAIN.eNodeB1.sctp  "Slow Start Threshold 8:10.0.5.1"  ETV
vector 1262  CAIN.eNodeB1.sctp  "Congestion Window 8:10.0.5.1"  ETV
vector 1263  CAIN.eNodeB1.sctp  "Bandwidth 8:10.0.5.1"  ETV
vector 1259  CAIN.eNodeB1.sctp  "RTO 8:10.0.5.1"  ETV
vector 1475  CAIN.eNodeB.sctp  "HB ACK Received 12:10.0.5.2"  ETV
vector 1466  CAIN.eNodeB.sctp  "RTT 12:10.0.5.2"  ETV
vector 1372  CAIN.eNodeB1.sctp  "HB ACK Received 11:10.0.5.1"  ETV
vector 1363  CAIN.eNodeB1.sctp  "RTT 11:10.0.5.1"  ETV
vector 1473  CAIN.eNodeB.sctp  "HB ACK Sent 12:10.0.5.2"  ETV
vector 1474  CAIN.eNodeB.sctp  "HB Received 12:10.0.5.2"  ETV
vector 1370  CAIN.eNodeB1.sctp  "HB ACK Sent 11:10.0.5.1"  ETV
vector 1371  CAIN.eNodeB1.sctp  "HB Received 11:10.0.5.1"  ETV
vector 1269  CAIN.eNodeB1.sctp  "HB ACK Received 8:10.0.5.1"  ETV
vector 1260  CAIN.eNodeB1.sctp  "RTT 8:10.0.5.1"  ETV
vector 1220  CAIN.eNodeB.sctp  "HB ACK Received 7:10.0.5.2"  ETV
vector 1211  CAIN.eNodeB.sctp  "RTT 7:10.0.5.2"  ETV
vector 942  CAIN.eNodeB.nic.mac  receivedPacketFromLowerLayer:vector(packetBytes)  ETV
attr interpolationmode  none
attr source  receivedPacketFromLowerLayer
vector 1607  CAIN.eNodeB.sctp  "SendQueue of Association 12"  ETV
vector 1470  CAIN.eNodeB.sctp  "TSN Sent 12:10.0.5.2"  ETV
vector 1477  CAIN.eNodeB.sctp  "Outstanding Bytes 12:10.0.5.2"  ETV
vector 1150  CAIN.eNodeB.sctp  "Outstanding Bytes 9:Total"  ETV
vector 1476  CAIN.eNodeB.sctp  "Queued Sent Bytes 12:10.0.5.2"  ETV
vector 1149  CAIN.eNodeB.sctp  "Queued Sent Bytes 9:Total"  ETV
vector 1265  CAIN.eNodeB1.sctp  "TSN Received 8:10.0.5.1"  ETV
vector 1241  CAIN.eNodeB1.sctp  "Queued Received Bytes 8:Total"  ETV
vector 1237  CAIN.eNodeB1.sctp  "Advertised Receiver Window 8"  ETV
vector 1246  CAIN.eNodeB1.sctp  "Number of Total Gap Blocks Stored 8"  ETV
vector 1247  CAIN.eNodeB1.sctp  "Number of Revokable Gap Blocks Stored 8"  ETV
vector 1248  CAIN.eNodeB1.sctp  "Number of Non-Revokable Gap Blocks Stored 8"  ETV
vector 1249  CAIN.eNodeB1.sctp  "Number of Duplicate TSNs Stored 8"  ETV
vector 1253  CAIN.eNodeB1.sctp  "Length of SACK Sent 8"  ETV
vector 1250  CAIN.eNodeB1.sctp  "Number of Revokable Gap Blocks Sent 8"  ETV
vector 1251  CAIN.eNodeB1.sctp  "Number of Non-Revokable Gap Blocks Sent 8"  ETV
vector 1252  CAIN.eNodeB1.sctp  "Number of Duplicate TSNs Sent 8"  ETV
vector 1257  CAIN.eNodeB1.sctp  "End to End Delay of Association 8"  ETV
vector 1045  CAIN.eNodeB1.x2App[0].client  rcvdPk:vector(packetBytes)  ETV
attr interpolationmode  none
attr source  rcvdPk
attr title  "packets received, vector(packetBytes)"
vector 1606  CAIN.eNodeB.sctp  "Number of Gap Blocks in Last SACK of Association 12"  ETV
vector 1151  CAIN.eNodeB.sctp  "Number of Revokable Gap Blocks in SACK 9"  ETV
vector 1152  CAIN.eNodeB.sctp  "Number of Non-Revokable Gap Blocks in SACK 9"  ETV
vector 1487  CAIN.eNodeB.sctp  "TSN Acked CumAck 12:10.0.5.2"  ETV
vector 1453  CAIN.eNodeB.sctp  "Number of Gap Acked Chunks in Last SACK 12:10.0.3.2"  ETV
vector 1454  CAIN.eNodeB.sctp  "Number of Non-Revokable Gap Acked Chunks in Last SACK 12:10.0.3.2"  ETV
vector 1455  CAIN.eNodeB.sctp  "Number of Gap Missed Chunks in Last SACK 12:10.0.3.2"  ETV
vector 1426  CAIN.eNodeB.sctp  "Number of Gap Acked Chunks in Last SACK 12:10.0.4.2"  ETV
vector 1427  CAIN.eNodeB.sctp  "Number of Non-Revokable Gap Acked Chunks in Last SACK 12:10.0.4.2"  ETV
vector 1428  CAIN.eNodeB.sctp  "Number of Gap Missed Chunks in Last SACK 12:10.0.4.2"  ETV
vector 1480  CAIN.eNodeB.sctp  "Number of Gap Acked Chunks in Last SACK 12:10.0.5.2"  ETV
vector 1481  CAIN.eNodeB.sctp  "Number of Non-Revokable Gap Acked Chunks in Last SACK 12:10.0.5.2"  ETV
vector 1482  CAIN.eNodeB.sctp  "Number of Gap Missed Chunks in Last SACK 12:10.0.5.2"  ETV
vector 1161  CAIN.eNodeB.sctp  "Arwnd in Last SACK 9"  ETV
vector 1489  CAIN.eNodeB.sctp  "TSN PseudoCumAck 12:10.0.5.2"  ETV
vector 1490  CAIN.eNodeB.sctp  "TSN RTXPseudoCumAck 12:10.0.5.2"  ETV
vector 1483  CAIN.eNodeB.sctp  "Partial Bytes Acked 12:10.0.5.2"  ETV
vector 1635  CAIN.ueD2DTx[2].tcp  tcpRcvQueueBytes  ETV
vector 1622  CAIN.ueD2DTx[2].tcp  "advertised window"  ETV
vector 1621  CAIN.ueD2DTx[2].tcp  "receive window"  ETV
vector 1624  CAIN.ueD2DTx[2].tcp  "sent ack"  ETV
vector 1115  CAIN.ueD2DTx[2].nic.pdcpRrc  receivedPacketFromUpperLayer:vector(packetBytes)  ETV
attr interpolationmode  none
attr source  receivedPacketFromUpperLayer
vector 1118  CAIN.ueD2DTx[2].nic.pdcpRrc  sentPacketToLowerLayer:vector(packetBytes)  ETV
attr interpolationmode  none
attr source  sentPacketToLowerLayer
vector 1119  CAIN.ueD2DTx[2].nic.mac  receivedPacketFromUpperLayer:vector(packetBytes)  ETV
attr interpolationmode  none
attr source  receivedPacketFromUpperLayer
vector 1129  CAIN.ueD2DTx[2].nic.mac  CainHopMessageSent:vector  ETV
attr interpolationmode  none
attr title  "# of Sent CAIN hop message, vector"
vector 1122  CAIN.ueD2DTx[2].nic.mac  sentPacketToLowerLayer:vector(packetBytes)  ETV
attr interpolationmode  none
attr source  sentPacketToLowerLayer
vector 1088  CAIN.ueD2DTx[1].nic.mac  receivedPacketFromLowerLayer:vector(packetBytes)  ETV
attr interpolationmode  none
attr source  receivedPacketFromLowerLayer
vector 1090  CAIN.ueD2DTx[1].nic.mac  sentPacketToLowerLayer:vector(packetBytes)  ETV
attr interpolationmode  none
attr source  sentPacketToLowerLayer
vector 1056  CAIN.ueD2DTx[0].nic.mac  receivedPacketFromLowerLayer:vector(packetBytes)  ETV
attr interpolationmode  none
attr source  receivedPacketFromLowerLayer
vector 1058  CAIN.ueD2DTx[0].nic.mac  sentPacketToLowerLayer:vector(packetBytes)  ETV
attr interpolationmode  none
attr source  sentPacketToLowerLayer
vector 1659  CAIN.ueD2DTx[1].tcp  tcpRcvQueueBytes  ETV
vector 1646  CAIN.ueD2DTx[1].tcp  "advertised window"  ETV
vector 1645  CAIN.ueD2DTx[1].tcp  "receive window"  ETV
vector 1648  CAIN.ueD2DTx[1].tcp  "sent ack"  ETV
vector 1083  CAIN.ueD2DTx[1].nic.pdcpRrc  receivedPacketFromUpperLayer:vector(packetBytes)  ETV
attr interpolationmode  none
attr source  receivedPacketFromUpperLayer
vector 1086  CAIN.ueD2DTx[1].nic.pdcpRrc  sentPacketToLowerLayer:vector(packetBytes)  ETV
attr interpolationmode  none
attr source  sentPacketToLowerLayer
vector 1087  CAIN.ueD2DTx[1].nic.mac  receivedPacketFromUpperLayer:vector(packetBytes)  ETV
attr interpolationmode  none
attr source  receivedPacketFromUpperLayer
vector 1097  CAIN.ueD2DTx[1].nic.mac  CainHopMessageSent:vector  ETV
attr interpolationmode  none
attr title  "# of Sent CAIN hop message, vector"
vector 957  CAIN.eNodeB.nic.mac  racpkt:vector  ETV
attr interpolationmode  none
attr title  "eNB received racpkt message, vector"
vector 958  CAIN.eNodeB.nic.mac  racDistanceSignal:vector  ETV
attr interpolationmode  none
attr title  "Rac distance to enb, vector"
vector 959  CAIN.eNodeB.nic.mac  racServedDevsSignal:vector  ETV
attr interpolationmode  none
attr title  "# of devices served on rac arriavall, vector"
vector 952  CAIN.eNodeB.nic.mac  DistanceSignal:vector  ETV
attr interpolationmode  none
attr title  "Distance to enb, vector"
vector 947  CAIN.eNodeB.nic.mac  CainHopMessage:vector  ETV
attr interpolationmode  none
attr title  "eNB received CAIN hop message, vector"
vector 944  CAIN.eNodeB.nic.mac  sentPacketToLowerLayer:vector(packetBytes)  ETV
attr interpolationmode  none
attr source  sentPacketToLowerLayer
vector 1120  CAIN.ueD2DTx[2].nic.mac  receivedPacketFromLowerLayer:vector(packetBytes)  ETV
attr interpolationmode  none
attr source  receivedPacketFromLowerLayer
vector 1063  CAIN.ueD2DTx[0].nic.mac  DropedHopMessage:vector  ETV
attr interpolationmode  none
attr title  "Droped Hop CAIN message due to RB not available, vector"
vector 1603  CAIN.eNodeB1.sctp  "SendQueue of Association 11"  ETV
vector 1367  CAIN.eNodeB1.sctp  "TSN Sent 11:10.0.5.1"  ETV
vector 1374  CAIN.eNodeB1.sctp  "Outstanding Bytes 11:10.0.5.1"  ETV
vector 1172  CAIN.eNodeB1.sctp  "Outstanding Bytes 10:Total"  ETV
vector 1373  CAIN.eNodeB1.sctp  "Queued Sent Bytes 11:10.0.5.1"  ETV
vector 1171  CAIN.eNodeB1.sctp  "Queued Sent Bytes 10:Total"  ETV
vector 1216  CAIN.eNodeB.sctp  "TSN Received 7:10.0.5.2"  ETV
vector 1192  CAIN.eNodeB.sctp  "Queued Received Bytes 7:Total"  ETV
vector 1188  CAIN.eNodeB.sctp  "Advertised Receiver Window 7"  ETV
vector 1197  CAIN.eNodeB.sctp  "Number of Total Gap Blocks Stored 7"  ETV
vector 1198  CAIN.eNodeB.sctp  "Number of Revokable Gap Blocks Stored 7"  ETV
vector 1199  CAIN.eNodeB.sctp  "Number of Non-Revokable Gap Blocks Stored 7"  ETV
vector 1200  CAIN.eNodeB.sctp  "Number of Duplicate TSNs Stored 7"  ETV
vector 1204  CAIN.eNodeB.sctp  "Length of SACK Sent 7"  ETV
vector 1201  CAIN.eNodeB.sctp  "Number of Revokable Gap Blocks Sent 7"  ETV
vector 1202  CAIN.eNodeB.sctp  "Number of Non-Revokable Gap Blocks Sent 7"  ETV
vector 1203  CAIN.eNodeB.sctp  "Number of Duplicate TSNs Sent 7"  ETV
vector 1208  CAIN.eNodeB.sctp  "End to End Delay of Association 7"  ETV
vector 987  CAIN.eNodeB.x2App[0].client  rcvdPk:vector(packetBytes)  ETV
attr interpolationmode  none
attr source  rcvdPk
attr title  "packets received, vector(packetBytes)"
vector 1602  CAIN.eNodeB1.sctp  "Number of Gap Blocks in Last SACK of Association 11"  ETV
vector 1173  CAIN.eNodeB1.sctp  "Number of Revokable Gap Blocks in SACK 10"  ETV
vector 1174  CAIN.eNodeB1.sctp  "Number of Non-Revokable Gap Blocks in SACK 10"  ETV
vector 1384  CAIN.eNodeB1.sctp  "TSN Acked CumAck 11:10.0.5.1"  ETV
vector 1350  CAIN.eNodeB1.sctp  "Number of Gap Acked Chunks in Last SACK 11:10.0.2.2"  ETV
vector 1351  CAIN.eNodeB1.sctp  "Number of Non-Revokable Gap Acked Chunks in Last SACK 11:10.0.2.2"  ETV
vector 1352  CAIN.eNodeB1.sctp  "Number of Gap Missed Chunks in Last SACK 11:10.0.2.2"  ETV
vector 1323  CAIN.eNodeB1.sctp  "Number of Gap Acked Chunks in Last SACK 11:10.0.4.1"  ETV
vector 1324  CAIN.eNodeB1.sctp  "Number of Non-Revokable Gap Acked Chunks in Last SACK 11:10.0.4.1"  ETV
vector 1325  CAIN.eNodeB1.sctp  "Number of Gap Missed Chunks in Last SACK 11:10.0.4.1"  ETV
vector 1377  CAIN.eNodeB1.sctp  "Number of Gap Acked Chunks in Last SACK 11:10.0.5.1"  ETV
vector 1378  CAIN.eNodeB1.sctp  "Number of Non-Revokable Gap Acked Chunks in Last SACK 11:10.0.5.1"  ETV
vector 1379  CAIN.eNodeB1.sctp  "Number of Gap Missed Chunks in Last SACK 11:10.0.5.1"  ETV
vector 1183  CAIN.eNodeB1.sctp  "Arwnd in Last SACK 10"  ETV
vector 1386  CAIN.eNodeB1.sctp  "TSN PseudoCumAck 11:10.0.5.1"  ETV
vector 1387  CAIN.eNodeB1.sctp  "TSN RTXPseudoCumAck 11:10.0.5.1"  ETV
vector 1380  CAIN.eNodeB1.sctp  "Partial Bytes Acked 11:10.0.5.1"  ETV
vector 1000  CAIN.eNodeB1.nic.mac  receivedPacketFromLowerLayer:vector(packetBytes)  ETV
attr interpolationmode  none
attr source  receivedPacketFromLowerLayer
vector 1683  CAIN.ueD2DTx[0].tcp  tcpRcvQueueBytes  ETV
vector 1670  CAIN.ueD2DTx[0].tcp  "advertised window"  ETV
vector 1669  CAIN.ueD2DTx[0].tcp  "receive window"  ETV
vector 1672  CAIN.ueD2DTx[0].tcp  "sent ack"  ETV
vector 1051  CAIN.ueD2DTx[0].nic.pdcpRrc  receivedPacketFromUpperLayer:vector(packetBytes)  ETV
attr interpolationmode  none
attr source  receivedPacketFromUpperLayer
vector 1054  CAIN.ueD2DTx[0].nic.pdcpRrc  sentPacketToLowerLayer:vector(packetBytes)  ETV
attr interpolationmode  none
attr source  sentPacketToLowerLayer
vector 1055  CAIN.ueD2DTx[0].nic.mac  receivedPacketFromUpperLayer:vector(packetBytes)  ETV
attr interpolationmode  none
attr source  receivedPacketFromUpperLayer
vector 961  CAIN.eNodeB.nic.phy  averageCqiUlvect:vector  ETV
attr source  averageCqiUlvect
attr title  "Average Cqi reported in UL, vector"
attr unit  cqi
vector 1065  CAIN.ueD2DTx[0].nic.mac  CainHopMessageSent:vector  ETV
attr interpolationmode  none
attr title  "# of Sent CAIN hop message, vector"
vector 1128  CAIN.ueD2DTx[2].nic.mac  CainMessageSent:vector  ETV
attr interpolationmode  none
attr title  "# of Sent CAIN message, vector"
vector 1015  CAIN.eNodeB1.nic.mac  racpkt:vector  ETV
attr interpolationmode  none
attr title  "eNB received racpkt message, vector"
vector 1016  CAIN.eNodeB1.nic.mac  racDistanceSignal:vector  ETV
attr interpolationmode  none
attr title  "Rac distance to enb, vector"
vector 1017  CAIN.eNodeB1.nic.mac  racServedDevsSignal:vector  ETV
attr interpolationmode  none
attr title  "# of devices served on rac arriavall, vector"
vector 1002  CAIN.eNodeB1.nic.mac  sentPacketToLowerLayer:vector(packetBytes)  ETV
attr interpolationmode  none
attr source  sentPacketToLowerLayer
vector 1019  CAIN.eNodeB1.nic.phy  averageCqiUlvect:vector  ETV
attr source  averageCqiUlvect
attr title  "Average Cqi reported in UL, vector"
attr unit  cqi
854	0	0	0
855	0	0	0
870	0	0	0
871	0	0	0
881	0	0	0
882	0	0	0
902	0	0	0
903	0	0	0
913	0	0	0
914	0	0	0
924	0	0	0
925	0	0	0
942	239	0.002	0
942	242	0.002	0
942	245	0.002	0
942	333	0.008	0
942	390	0.014	0
942	447	0.02	0
942	504	0.026	0
942	573	0.032	0
942	595	0.033	0
942	634	0.036	0
942	666	0.038	0
942	669	0.038	0
942	705	0.041	0
942	740	0.043	0
942	750	0.044	0
942	779	0.046	0
942	805	0.048	0
942	837	0.05	0
942	853	0.051	0
942	876	0.053	0
942	921	0.056	0
942	927	0.056	0
942	988	0.058	0
942	1027	0.062	0
942	1090	0.068	0
942	1153	0.074	0
942	1216	0.08	0
942	1279	0.086	0
942	1342	0.092	0
942	1397	0.096	0
942	1420	0.098	0
942	1457	0.1	0
942	1466	0.101	0
942	1504	0.104	0
942	1529	0.105	0
942	1538	0.106	0
942	1586	0.11	0
942	1593	0.11	0
942	1654	0.116	0
942	1710	0.121	0
942	1721	0.122	0
942	1756	0.125	0
942	1768	0.126	0
942	1792	0.128	0
942	1820	0.13	0
942	1829	0.131	0
942	1867	0.134	0
942	1884	0.135	0
942	1893	0.136	0
942	1941	0.14	0
942	1948	0.14	0
942	2009	0.146	0
942	2065	0.151	0
942	2076	0.152	0
942	2111	0.155	0
942	2123	0.156	0
942	2147	0.158	0
942	2175	0.16	0
942	2184	0.161	0
942	2222	0.164	0
942	2239	0.165	0
942	2248	0.166	0
942	2296	0.17	0
942	2303	0.17	0
942	2364	0.176	0
942	2420	0.181	0
942	2431	0.182	0
942	2466	0.185	0
942	2478	0.186	0
942	2502	0.188	0
942	2530	0.19	0
942	2539	0.191	0
942	2577	0.194	0
942	2594	0.195	0
942	2603	0.196	0
942	2654	0.2	0
942	2661	0.2	0
942	2722	0.206	0
942	2873	0.211	0
942	2884	0.212	0
942	2919	0.215	0
942	2931	0.216	0
942	2955	0.218	0
942	2983	0.22	0
942	2992	0.221	0
942	3030	0.224	0
942	3047	0.225	0
942	3056	0.226	0
942	3104	0.23	0
942	3111	0.23	0
942	3172	0.236	0
942	3228	0.241	0
942	3239	0.242	0
942	3274	0.245	0
942	3286	0.246	0
942	3310	0.248	0
942	3338	0.25	0
942	3347	0.251	0
942	3385	0.254	0
942	3402	0.255	0
942	3411	0.256	0
942	3554	0.26	0
942	3561	0.26	0
942	3622	0.266	0
942	3678	0.271	0
942	3689	0.272	0
942	3724	0.275	0
942	3736	0.276	0
942	3760	0.278	0
942	3788	0.28	0
942	3797	0.281	0
942	3835	0.284	0
942	3852	0.285	0
942	3861	0.286	0
942	3909	0.29	0
942	3916	0.29	0
942	3977	0.296	0
942	4036	0.301	0
942	4047	0.302	0
942	4082	0.305	0
942	4094	0.306	0
942	4118	0.308	0
942	4146	0.31	0
942	4155	0.311	0
942	4193	0.314	0
942	4210	0.315	0
942	4219	0.316	0
942	4267	0.32	0
942	4274	0.32	0
942	4335	0.326	0
942	4391	0.331	0
942	4402	0.332	0
942	4437	0.335	0
942	4449	0.336	0
942	4473	0.338	0
942	4501	0.34	0
942	4510	0.341	0
942	4548	0.344	0
942	4565	0.345	0
942	4574	0.346	0
942	4622	0.35	0
942	4629	0.35	0
942	4690	0.356	0
942	4746	0.361	0
942	4757	0.362	0
942	4792	0.365	0
942	4804	0.366	0
942	4828	0.368	0
942	4856	0.37	0
942	4865	0.371	0
942	4903	0.374	0
942	4920	0.375	0
942	4929	0.376	0
942	4977	0.38	0
942	4984	0.38	0
942	5045	0.386	0
942	5101	0.391	0
942	5112	0.392	0
942	5147	0.395	0
942	5159	0.396	0
942	5183	0.398	0
942	5214	0.4	0
942	5223	0.401	0
942	5261	0.404	0
942	5278	0.405	0
942	5287	0.406	0
942	5343	0.41	0
942	5350	0.41	0
942	5411	0.416	0
942	5467	0.421	0
942	5478	0.422	0
942	5513	0.425	0
942	5525	0.426	0
942	5549	0.428	0
942	5577	0.43	0
942	5586	0.431	0
942	5624	0.434	0
942	5641	0.435	0
942	5650	0.436	0
942	5698	0.44	0
942	5705	0.44	0
942	5766	0.446	0
942	5822	0.451	0
942	5833	0.452	0
942	5868	0.455	0
942	5880	0.456	0
942	5912	0.458	0
942	5940	0.46	0
942	5949	0.461	0
942	5987	0.464	0
942	6004	0.465	0
942	6013	0.466	0
942	6061	0.47	0
942	6068	0.47	0
942	6129	0.476	0
942	6185	0.481	0
942	6196	0.482	0
942	6231	0.485	0
942	6243	0.486	0
942	6267	0.488	0
942	6295	0.49	0
942	6304	0.491	0
942	6342	0.494	0
942	6359	0.495	0
942	6368	0.496	0
942	6419	0.5	0
942	6426	0.5	0
942	6487	0.506	0
942	6543	0.511	0
942	6554	0.512	0
942	6589	0.515	0
942	6601	0.516	0
942	6625	0.518	0
942	6653	0.52	0
942	6662	0.521	0
942	6700	0.524	0
942	6717	0.525	0
942	6726	0.526	0
942	6774	0.53	0
942	6781	0.53	0
942	6842	0.536	0
942	6898	0.541	0
942	6909	0.542	0
942	6944	0.545	0
942	6956	0.546	0
942	6980	0.548	0
942	7008	0.55	0
942	7017	0.551	0
942	7055	0.554	0
942	7072	0.555	0
942	7081	0.556	0
942	7129	0.56	0
942	7136	0.56	0
942	7197	0.566	0
942	7253	0.571	0
942	7264	0.572	0
942	7299	0.575	0
942	7311	0.576	0
942	7335	0.578	0
942	7363	0.58	0
942	7372	0.581	0
942	7410	0.584	0
942	7427	0.585	0
942	7436	0.586	0
942	7484	0.59	0
942	7491	0.59	0
942	7552	0.596	0
942	7611	0.601	0
942	7622	0.602	0
942	7657	0.605	0
942	7669	0.606	0
942	7693	0.608	0
942	7721	0.61	0
942	7730	0.611	0
942	7768	0.614	0
942	7785	0.615	0
942	7794	0.616	0
942	7842	0.62	0
942	7849	0.62	0
942	7910	0.626	0
942	7966	0.631	0
942	7977	0.632	0
942	8012	0.635	0
942	8024	0.636	0
942	8048	0.638	0
942	8076	0.64	0
942	8085	0.641	0
942	8123	0.644	0
942	8140	0.645	0
942	8149	0.646	0
942	8197	0.65	0
942	8204	0.65	0
942	8265	0.656	0
942	8321	0.661	0
942	8332	0.662	0
942	8367	0.665	0
942	8379	0.666	0
942	8403	0.668	0
942	8431	0.67	0
942	8440	0.671	0
942	8478	0.674	0
942	8495	0.675	0
942	8504	0.676	0
942	8552	0.68	0
942	8559	0.68	0
942	8620	0.686	0
942	8676	0.691	0
942	8687	0.692	0
942	8722	0.695	0
942	8734	0.696	0
942	8758	0.698	0
942	8789	0.7	0
942	8798	0.701	0
942	8836	0.704	0
942	8853	0.705	0
942	8862	0.706	0
942	8910	0.71	0
942	8917	0.71	0
942	8978	0.716	0
942	9034	0.721	0
942	9045	0.722	0
942	9080	0.725	0
942	9092	0.726	0
942	9116	0.728	0
942	9144	0.73	0
942	9153	0.731	0
942	9191	0.734	0
942	9208	0.735	0
942	9217	0.736	0
942	9265	0.74	0
942	9272	0.74	0
942	9333	0.746	0
942	9389	0.751	0
942	9400	0.752	0
942	9435	0.755	0
942	9447	0.756	0
942	9471	0.758	0
942	9499	0.76	0
942	9508	0.761	0
942	9546	0.764	0
942	9563	0.765	0
942	9572	0.766	0
942	9620	0.77	0
942	9627	0.77	0
942	9688	0.776	0
942	9744	0.781	0
942	9755	0.782	0
942	9790	0.785	0
942	9802	0.786	0
942	9826	0.788	0
942	9854	0.79	0
942	9863	0.791	0
942	9901	0.794	0
942	9918	0.795	0
942	9927	0.796	0
942	9978	0.8	0
942	9985	0.8	0
942	10046	0.806	0
942	10102	0.811	0
942	10113	0.812	0
942	10148	0.815	0
942	10160	0.816	0
942	10184	0.818	0
942	10212	0.82	0
942	10221	0.821	0
942	10259	0.824	0
942	10276	0.825	0
942	10285	0.826	0
942	10333	0.83	0
942	10340	0.83	0
942	10401	0.836	0
942	10457	0.841	0
942	10468	0.842	0
942	10503	0.845	0
942	10515	0.846	0
942	10539	0.848	0
942	10567	0.85	0
942	10576	0.851	0
942	10614	0.854	0
942	10631	0.855	0
942	10640	0.856	0
942	10688	0.86	0
942	10695	0.86	0
942	10756	0.866	0
942	10812	0.871	0
942	10823	0.872	0
942	10858	0.875	0
942	10870	0.876	0
942	10894	0.878	0
942	10922	0.88	0
942	10931	0.881	0
942	10969	0.884	0
942	10986	0.885	0
942	10995	0.886	0
942	11043	0.89	0
942	11050	0.89	0
942	11111	0.896	0
942	11170	0.901	0
942	11181	0.902	0
942	11216	0.905	0
942	11228	0.906	0
942	11252	0.908	0
942	11280	0.91	0
942	11289	0.911	0
942	11327	0.914	0
942	11344	0.915	0
942	11353	0.916	0
942	11401	0.92	0
942	11408	0.92	0
942	11469	0.926	0
942	11525	0.931	0
942	11536	0.932	0
942	11571	0.935	0
942	11583	0.936	0
942	11607	0.938	0
942	11635	0.94	0
942	11644	0.941	0
942	11682	0.944	0
942	11699	0.945	0
942	11708	0.946	0
942	11756	0.95	0
942	11763	0.95	0
942	11824	0.956	0
942	11880	0.961	0
942	11891	0.962	0
942	11926	0.965	0
942	11938	0.966	0
942	11962	0.968	0
942	11990	0.97	0
942	11999	0.971	0
942	12037	0.974	0
942	12054	0.975	0
942	12063	0.976	0
942	12111	0.98	0
942	12118	0.98	0
942	12179	0.986	0
942	12235	0.991	0
942	12246	0.992	0
942	12281	0.995	0
942	12293	0.996	0
942	12317	0.998	0
942	12348	1	0
942	12357	1.001	0
942	12395	1.004	0
942	12412	1.005	0
942	12421	1.006	0
942	12469	1.01	0
942	12476	1.01	0
942	12537	1.016	0
942	12593	1.021	0
942	12604	1.022	0
942	12639	1.025	0
942	12651	1.026	0
942	12675	1.028	0
942	12703	1.03	0
942	12712	1.031	0
942	12750	1.034	0
942	12767	1.035	0
942	12776	1.036	0
942	12824	1.04	0
942	12831	1.04	0
942	12892	1.046	0
942	12948	1.051	0
942	12959	1.052	0
942	12994	1.055	0
942	13006	1.056	0
942	13030	1.058	0
942	13058	1.06	0
942	13067	1.061	0
942	13105	1.064	0
942	13122	1.065	0
942	13131	1.066	0
942	13179	1.07	0
942	13186	1.07	0
942	13247	1.076	0
942	13303	1.081	0
942	13314	1.082	0
942	13349	1.085	0
942	13361	1.086	0
942	13385	1.088	0
942	13413	1.09	0
942	13422	1.091	0
942	13460	1.094	0
942	13477	1.095	0
942	13486	1.096	0
942	13537	1.1	0
942	13544	1.1	0
942	13605	1.106	0
942	13661	1.111	0
942	13672	1.112	0
942	13707	1.115	0
942	13719	1.116	0
942	13743	1.118	0
942	13771	1.12	0
942	13780	1.121	0
942	13818	1.124	0
942	13835	1.125	0
942	13844	1.126	0
942	13892	1.13	0
942	13899	1.13	0
942	13960	1.136	0
942	14016	1.141	0
942	14027	1.142	0
942	14062	1.145	0
942	14074	1.146	0
942	14098	1.148	0
942	14126	1.15	0
942	14135	1.151	0
942	14173	1.154	0
942	14190	1.155	0
942	14199	1.156	0
942	14247	1.16	0
942	14254	1.16	0
942	14315	1.166	0
942	14371	1.171	0
942	14382	1.172	0
942	14417	1.175	0
942	14429	1.176	0
942	14453	1.178	0
942	14481	1.18	0
942	14490	1.181	0
942	14528	1.184	0
942	14545	1.185	0
942	14554	1.186	0
942	14602	1.19	0
942	14609	1.19	0
942	14670	1.196	0
942	14729	1.201	0
942	14740	1.202	0
942	14775	1.205	0
942	14787	1.206	0
942	14812	1.208	0
942	14840	1.21	0
942	14849	1.211	0
942	14887	1.214	0
942	14904	1.215	0
942	14913	1.216	0
942	14961	1.22	0
942	14968	1.22	0
942	15029	1.226	0
942	15085	1.231	0
942	15096	1.232	0
942	15131	1.235	0
942	15143	1.236	0
942	15167	1.238	0
942	15195	1.24	0
942	15204	1.241	0
942	15242	1.244	0
942	15259	1.245	0
942	15268	1.246	0
942	15316	1.25	0
942	15323	1.25	0
942	15384	1.256	0
942	15441	1.261	0
942	15452	1.262	0
942	15487	1.265	0
942	15499	1.266	0
942	15523	1.268	0
942	15551	1.27	0
942	15560	1.271	0
942	15598	1.274	0
942	15615	1.275	0
942	15624	1.276	0
942	15672	1.28	0
942	15679	1.28	0
942	15740	1.286	0
942	15796	1.291	0
942	15807	1.292	0
942	15842	1.295	0
942	15854	1.296	0
942	15878	1.298	0
942	15909	1.3	0
942	15918	1.301	0
942	15956	1.304	0
942	15973	1.305	0
942	15982	1.306	0
942	16030	1.31	0
942	16037	1.31	0
942	16098	1.316	0
942	16154	1.321	0
942	16165	1.322	0
942	16200	1.325	0
942	16212	1.326	0
942	16236	1.328	0
942	16264	1.33	0
942	16273	1.331	0
942	16311	1.334	0
942	16328	1.335	0
942	16337	1.336	0
942	16385	1.34	0
942	16392	1.34	0
942	16453	1.346	0
942	16509	1.351	0
942	16520	1.352	0
942	16555	1.355	0
942	16567	1.356	0
942	16591	1.358	0
942	16619	1.36	0
942	16628	1.361	0
942	16666	1.364	0
942	16683	1.365	0
942	16692	1.366	0
942	16740	1.37	0
942	16747	1.37	0
942	16808	1.376	0
942	16864	1.381	0
942	16875	1.382	0
942	16910	1.385	0
942	16922	1.386	0
942	16946	1.388	0
942	16974	1.39	0
942	16983	1.391	0
942	17021	1.394	0
942	17038	1.395	0
942	17047	1.396	0
942	17098	1.4	0
942	17105	1.4	0
942	17166	1.406	0
942	17222	1.411	0
942	17233	1.412	0
942	17268	1.415	0
942	17280	1.416	0
942	17304	1.418	0
942	17332	1.42	0
942	17341	1.421	0
942	17379	1.424	0
942	17396	1.425	0
942	17405	1.426	0
942	17453	1.43	0
942	17460	1.43	0
942	17521	1.436	0
942	17577	1.441	0
942	17588	1.442	0
942	17623	1.445	0
942	17635	1.446	0
942	17659	1.448	0
942	17687	1.45	0
942	17696	1.451	0
942	17734	1.454	0
942	17751	1.455	0
942	17760	1.456	0
942	17808	1.46	0
942	17815	1.46	0
942	17876	1.466	0
942	17932	1.471	0
942	17943	1.472	0
942	17978	1.475	0
942	17990	1.476	0
942	18014	1.478	0
942	18042	1.48	0
942	18051	1.481	0
942	18089	1.484	0
942	18106	1.485	0
942	18115	1.486	0
942	18163	1.49	0
942	18170	1.49	0
942	18231	1.496	0
942	18290	1.501	0
942	18301	1.502	0
942	18336	1.505	0
942	18348	1.506	0
942	18372	1.508	0
942	18400	1.51	0
942	18409	1.511	0
942	18447	1.514	0
942	18464	1.515	0
942	18473	1.516	0
942	18521	1.52	0
942	18528	1.52	0
942	18589	1.526	0
942	18645	1.531	0
942	18656	1.532	0
942	18691	1.535	0
942	18703	1.536	0
942	18727	1.538	0
942	18755	1.54	0
942	18764	1.541	0
942	18802	1.544	0
942	18819	1.545	0
942	18828	1.546	0
942	18876	1.55	0
942	18883	1.55	0
942	18944	1.556	0
942	19000	1.561	0
942	19011	1.562	0
942	19046	1.565	0
942	19058	1.566	0
942	19082	1.568	0
942	19110	1.57	0
942	19119	1.571	0
942	19157	1.574	0
942	19174	1.575	0
942	19183	1.576	0
942	19231	1.58	0
942	19238	1.58	0
942	19299	1.586	0
942	19355	1.591	0
942	19366	1.592	0
942	19401	1.595	0
942	19413	1.596	0
942	19437	1.598	0
942	19468	1.6	0
942	19477	1.601	0
942	19515	1.604	0
942	19532	1.605	0
942	19541	1.606	0
942	19589	1.61	0
942	19596	1.61	0
942	19657	1.616	0
942	19713	1.621	0
942	19724	1.622	0
942	19759	1.625	0
942	19771	1.626	0
942	19795	1.628	0
942	19823	1.63	0
942	19832	1.631	0
942	19870	1.634	0
942	19887	1.635	0
942	19896	1.636	0
942	19944	1.64	0
942	19951	1.64	0
942	20012	1.646	0
942	20068	1.651	0
942	20079	1.652	0
942	20114	1.655	0
942	20126	1.656	0
942	20150	1.658	0
942	20178	1.66	0
942	20187	1.661	0
942	20225	1.664	0
942	20242	1.665	0
942	20251	1.666	0
942	20299	1.67	0
942	20306	1.67	0
942	20367	1.676	0
942	20423	1.681	0
942	20434	1.682	0
942	20469	1.685	0
942	20481	1.686	0
942	20505	1.688	0
942	20533	1.69	0
942	20542	1.691	0
942	20580	1.694	0
942	20597	1.695	0
942	20606	1.696	0
942	20657	1.7	0
942	20664	1.7	0
942	20725	1.706	0
942	20781	1.711	0
942	20792	1.712	0
942	20827	1.715	0
942	20839	1.716	0
942	20863	1.718	0
942	20891	1.72	0
942	20900	1.721	0
942	20938	1.724	0
942	20955	1.725	0
942	20964	1.726	0
942	21012	1.73	0
942	21019	1.73	0
942	21080	1.736	0
942	21136	1.741	0
942	21147	1.742	0
942	21182	1.745	0
942	21194	1.746	0
942	21218	1.748	0
942	21246	1.75	0
942	21255	1.751	0
942	21293	1.754	0
942	21310	1.755	0
942	21319	1.756	0
942	21367	1.76	0
942	21374	1.76	0
942	21435	1.766	0
942	21491	1.771	0
942	21502	1.772	0
942	21537	1.775	0
942	21549	1.776	0
942	21573	1.778	0
942	21601	1.78	0
942	21610	1.781	0
942	21648	1.784	0
942	21665	1.785	0
942	21674	1.786	0
942	21722	1.79	0
942	21729	1.79	0
942	21790	1.796	0
942	21849	1.801	0
942	21860	1.802	0
942	21895	1.805	0
942	21907	1.806	0
942	21931	1.808	0
942	21959	1.81	0
942	21968	1.811	0
942	22006	1.814	0
942	22023	1.815	0
942	22032	1.816	0
942	22080	1.82	0
942	22087	1.82	0
942	22148	1.826	0
942	22204	1.831	0
942	22215	1.832	0
942	22250	1.835	0
942	22262	1.836	0
942	22286	1.838	0
942	22314	1.84	0
942	22323	1.841	0
942	22361	1.844	0
942	22378	1.845	0
942	22387	1.846	0
942	22435	1.85	0
942	22442	1.85	0
942	22503	1.856	0
942	22559	1.861	0
942	22570	1.862	0
942	22605	1.865	0
942	22617	1.866	0
942	22641	1.868	0
942	22669	1.87	0
942	22678	1.871	0
942	22716	1.874	0
942	22733	1.875	0
942	22742	1.876	0
942	22790	1.88	0
942	22797	1.88	0
942	22858	1.886	0
942	22914	1.891	0
942	22925	1.892	0
942	22960	1.895	0
942	22972	1.896	0
942	22996	1.898	0
942	23027	1.9	0
942	23036	1.901	0
942	23074	1.904	0
942	23091	1.905	0
942	23100	1.906	0
942	23148	1.91	0
942	23155	1.91	0
942	23216	1.916	0
942	23272	1.921	0
942	23283	1.922	0
942	23318	1.925	0
942	23330	1.926	0
942	23354	1.928	0
942	23382	1.93	0
942	23391	1.931	0
942	23429	1.934	0
942	23446	1.935	0
942	23455	1.936	0
942	23503	1.94	0
942	23510	1.94	0
942	23571	1.946	0
942	23627	1.951	0
942	23638	1.952	0
942	23673	1.955	0
942	23685	1.956	0
942	23709	1.958	0
942	23737	1.96	0
942	23746	1.961	0
942	23784	1.964	0
942	23801	1.965	0
942	23810	1.966	0
942	23858	1.97	0
942	23865	1.97	0
942	23926	1.976	0
942	23982	1.981	0
942	23993	1.982	0
942	24028	1.985	0
942	24040	1.986	0
942	24064	1.988	0
942	24092	1.99	0
942	24101	1.991	0
942	24139	1.994	0
942	24156	1.995	0
942	24165	1.996	0
942	24216	2	0
942	24223	2	0
942	24284	2.006	0
942	24340	2.011	0
942	24351	2.012	0
942	24386	2.015	0
942	24398	2.016	0
942	24422	2.018	0
942	24450	2.02	0
942	24459	2.021	0
942	24497	2.024	0
942	24514	2.025	0
942	24523	2.026	0
942	24571	2.03	0
942	24578	2.03	0
942	24639	2.036	0
942	24695	2.041	0
942	24706	2.042	0
942	24741	2.045	0
942	24753	2.046	0
942	24777	2.048	0
942	24805	2.05	0
942	24814	2.051	0
942	24852	2.054	0
942	24869	2.055	0
942	24878	2.056	0
942	24926	2.06	0
942	24933	2.06	0
942	24994	2.066	0
942	25050	2.071	0
942	25061	2.072	0
942	25096	2.075	0
942	25108	2.076	0
942	25132	2.078	0
942	25160	2.08	0
942	25169	2.081	0
942	25207	2.084	0
942	25224	2.085	0
942	25233	2.086	0
942	25281	2.09	0
942	25288	2.09	0
942	25349	2.096	0
942	25408	2.101	0
942	25419	2.102	0
942	25454	2.105	0
942	25466	2.106	0
942	25490	2.108	0
942	25518	2.11	0
942	25527	2.111	0
942	25565	2.114	0
942	25582	2.115	0
942	25591	2.116	0
942	25639	2.12	0
942	25646	2.12	0
942	25707	2.126	0
942	25763	2.131	0
942	25774	2.132	0
942	25809	2.135	0
942	25821	2.136	0
942	25845	2.138	0
942	25873	2.14	0
942	25882	2.141	0
942	25920	2.144	0
942	25937	2.145	0
942	25946	2.146	0
942	25994	2.15	0
942	26001	2.15	0
942	26062	2.156	0
942	26118	2.161	0
942	26129	2.162	0
942	26164	2.165	0
942	26176	2.166	0
942	26200	2.168	0
942	26228	2.17	0
942	26237	2.171	0
942	26275	2.174	0
942	26292	2.175	0
942	26301	2.176	0
942	26349	2.18	0
942	26356	2.18	0
942	26417	2.186	0
942	26473	2.191	0
942	26484	2.192	0
942	26519	2.195	0
942	26531	2.196	0
942	26555	2.198	0
942	26586	2.2	0
942	26595	2.201	0
942	26633	2.204	0
942	26650	2.205	0
942	26659	2.206	0
942	26707	2.21	0
942	26714	2.21	0
942	26775	2.216	0
942	26831	2.221	0
942	26842	2.222	0
942	26877	2.225	0
942	26889	2.226	0
942	26913	2.228	0
942	26941	2.23	0
942	26950	2.231	0
942	26988	2.234	0
942	27005	2.235	0
942	27014	2.236	0
942	27062	2.24	0
942	27069	2.24	0
942	27130	2.246	0
942	27186	2.251	0
942	27197	2.252	0
942	27232	2.255	0
942	27244	2.256	0
942	27268	2.258	0
942	27296	2.26	0
942	27305	2.261	0
942	27343	2.264	0
942	27360	2.265	0
942	27369	2.266	0
942	27417	2.27	0
942	27424	2.27	0
942	27485	2.276	0
942	27541	2.281	0
942	27552	2.282	0
942	27587	2.285	0
942	27599	2.286	0
942	27623	2.288	0
942	27651	2.29	0
942	27660	2.291	0
942	27698	2.294	0
942	27715	2.295	0
942	27724	2.296	0
942	27775	2.3	0
942	27782	2.3	0
942	27843	2.306	0
942	27899	2.311	0
942	27910	2.312	0
942	27945	2.315	0
942	27957	2.316	0
942	27981	2.318	0
942	28009	2.32	0
942	28018	2.321	0
942	28056	2.324	0
942	28073	2.325	0
942	28082	2.326	0
942	28130	2.33	0
942	28137	2.33	0
942	28198	2.336	0
942	28254	2.341	0
942	28265	2.342	0
942	28300	2.345	0
942	28312	2.346	0
942	28336	2.348	0
942	28364	2.35	0
942	28373	2.351	0
942	28411	2.354	0
942	28428	2.355	0
942	28437	2.356	0
942	28485	2.36	0
942	28492	2.36	0
942	28553	2.366	0
942	28609	2.371	0
942	28620	2.372	0
942	28655	2.375	0
942	28667	2.376	0
942	28691	2.378	0
942	28719	2.38	0
942	28728	2.381	0
942	28766	2.384	0
942	28783	2.385	0
942	28792	2.386	0
942	28840	2.39	0
942	28847	2.39	0
942	28908	2.396	0
942	28967	2.401	0
942	28978	2.402	0
942	29013	2.405	0
942	29025	2.406	0
942	29049	2.408	0
942	29077	2.41	0
942	29086	2.411	0
942	29124	2.414	0
942	29141	2.415	0
942	29150	2.416	0
942	29198	2.42	0
942	29205	2.42	0
942	29266	2.426	0
942	29322	2.431	0
942	29333	2.432	0
942	29368	2.435	0
942	29380	2.436	0
942	29404	2.438	0
942	29432	2.44	0
942	29441	2.441	0
942	29479	2.444	0
942	29496	2.445	0
942	29505	2.446	0
942	29553	2.45	0
942	29560	2.45	0
942	29621	2.456	0
942	29677	2.461	0
942	29688	2.462	0
942	29723	2.465	0
942	29735	2.466	0
942	29759	2.468	0
942	29787	2.47	0
942	29796	2.471	0
942	29834	2.474	0
942	29851	2.475	0
942	29860	2.476	0
942	29908	2.48	0
942	29915	2.48	0
942	29976	2.486	0
942	30032	2.491	0
942	30043	2.492	0
942	30078	2.495	0
942	30090	2.496	0
942	30114	2.498	0
942	30145	2.5	0
942	30154	2.501	0
942	30192	2.504	0
942	30209	2.505	0
942	30218	2.506	0
942	30266	2.51	0
942	30273	2.51	0
942	30334	2.516	0
942	30390	2.521	0
942	30401	2.522	0
942	30436	2.525	0
942	30448	2.526	0
942	30472	2.528	0
942	30500	2.53	0
942	30509	2.531	0
942	30547	2.534	0
942	30564	2.535	0
942	30573	2.536	0
942	30621	2.54	0
942	30628	2.54	0
942	30689	2.546	0
942	30745	2.551	0
942	30756	2.552	0
942	30791	2.555	0
942	30803	2.556	0
942	30827	2.558	0
942	30855	2.56	0
942	30864	2.561	0
942	30902	2.564	0
942	30919	2.565	0
942	30928	2.566	0
942	30976	2.57	0
942	30983	2.57	0
942	31044	2.576	0
942	31100	2.581	0
942	31111	2.582	0
942	31146	2.585	0
942	31158	2.586	0
942	31182	2.588	0
942	31210	2.59	0
942	31219	2.591	0
942	31257	2.594	0
942	31274	2.595	0
942	31283	2.596	0
942	31334	2.6	0
942	31341	2.6	0
942	31402	2.606	0
942	31458	2.611	0
942	31469	2.612	0
942	31504	2.615	0
942	31516	2.616	0
942	31540	2.618	0
942	31568	2.62	0
942	31577	2.621	0
942	31615	2.624	0
942	31632	2.625	0
942	31641	2.626	0
942	31689	2.63	0
942	31696	2.63	0
942	31757	2.636	0
942	31813	2.641	0
942	31824	2.642	0
942	31859	2.645	0
942	31871	2.646	0
942	31895	2.648	0
942	31923	2.65	0
942	31932	2.651	0
942	31970	2.654	0
942	31987	2.655	0
942	31996	2.656	0
942	32044	2.66	0
942	32051	2.66	0
942	32112	2.666	0
942	32168	2.671	0
942	32179	2.672	0
942	32214	2.675	0
942	32226	2.676	0
942	32250	2.678	0
942	32278	2.68	0
942	32287	2.681	0
942	32325	2.684	0
942	32342	2.685	0
942	32351	2.686	0
942	32399	2.69	0
942	32406	2.69	0
942	32467	2.696	0
942	32526	2.701	0
942	32537	2.702	0
942	32572	2.705	0
942	32584	2.706	0
942	32608	2.708	0
942	32636	2.71	0
942	32645	2.711	0
942	32683	2.714	0
942	32700	2.715	0
942	32709	2.716	0
942	32757	2.72	0
942	32764	2.72	0
942	32825	2.726	0
942	32881	2.731	0
942	32892	2.732	0
942	32927	2.735	0
942	32939	2.736	0
942	32963	2.738	0
942	32991	2.74	0
942	33000	2.741	0
942	33038	2.744	0
942	33055	2.745	0
942	33064	2.746	0
942	33112	2.75	0
942	33119	2.75	0
942	33180	2.756	0
942	33236	2.761	0
942	33247	2.762	0
942	33282	2.765	0
942	33294	2.766	0
942	33318	2.768	0
942	33346	2.77	0
942	33355	2.771	0
942	33393	2.774	0
942	33410	2.775	0
942	33419	2.776	0
942	33467	2.78	0
942	33474	2.78	0
942	33535	2.786	0
942	33591	2.791	0
942	33602	2.792	0
942	33637	2.795	0
942	33649	2.796	0
942	33673	2.798	0
942	33704	2.8	0
942	33713	2.801	0
942	33751	2.804	0
942	33768	2.805	0
942	33777	2.806	0
942	33825	2.81	0
942	33832	2.81	0
942	33893	2.816	0
942	33949	2.821	0
942	33960	2.822	0
942	33995	2.825	0
942	34007	2.826	0
942	34031	2.828	0
942	34059	2.83	0
942	34068	2.831	0
942	34106	2.834	0
942	34123	2.835	0
942	34132	2.836	0
942	34180	2.84	0
942	34187	2.84	0
942	34248	2.846	0
942	34304	2.851	0
942	34315	2.852	0
942	34350	2.855	0
942	34362	2.856	0
942	34386	2.858	0
942	34414	2.86	0
942	34423	2.861	0
942	34461	2.864	0
942	34478	2.865	0
942	34487	2.866	0
942	34535	2.87	0
942	34542	2.87	0
942	34603	2.876	0
942	34659	2.881	0
942	34670	2.882	0
942	34705	2.885	0
942	34717	2.886	0
942	34741	2.888	0
942	34769	2.89	0
942	34778	2.891	0
942	34816	2.894	0
942	34833	2.895	0
942	34842	2.896	0
942	34893	2.9	0
942	34900	2.9	0
942	34961	2.906	0
942	35017	2.911	0
942	35028	2.912	0
942	35063	2.915	0
942	35075	2.916	0
942	35099	2.918	0
942	35127	2.92	0
942	35136	2.921	0
942	35174	2.924	0
942	35191	2.925	0
942	35200	2.926	0
942	35248	2.93	0
942	35255	2.93	0
942	35316	2.936	0
942	35372	2.941	0
942	35383	2.942	0
942	35418	2.945	0
942	35430	2.946	0
942	35454	2.948	0
942	35482	2.95	0
942	35491	2.951	0
942	35529	2.954	0
942	35546	2.955	0
942	35555	2.956	0
942	35603	2.96	0
942	35610	2.96	0
942	35671	2.966	0
942	35727	2.971	0
942	35738	2.972	0
942	35773	2.975	0
942	35785	2.976	0
942	35809	2.978	0
942	35837	2.98	0
942	35846	2.981	0
942	35884	2.984	0
942	35901	2.985	0
942	35910	2.986	0
942	35958	2.99	0
942	35965	2.99	0
942	36026	2.996	0
942	36085	3.001	0
942	36096	3.002	0
942	36131	3.005	0
942	36143	3.006	0
942	36167	3.008	0
942	36195	3.01	0
942	36204	3.011	0
942	36242	3.014	0
942	36259	3.015	0
942	36268	3.016	0
942	36316	3.02	0
942	36323	3.02	0
942	36384	3.026	0
942	36448	3.031	0
942	36462	3.032	0
942	36511	3.035	0
942	36527	3.036	0
942	36558	3.038	0
942	36593	3.04	0
944	595	0.033	0
944	634	0.036	0
944	669	0.038	0
944	705	0.041	0
944	740	0.043	0
944	779	0.046	0
944	805	0.048	0
944	853	0.051	0
944	876	0.053	0
944	927	0.056	0
944	988	0.058	0
944	1397	0.096	0
944	1402	0.097	0
944	1466	0.101	0
944	1471	0.102	0
944	1484	0.103	0
944	1538	0.106	0
944	1540	0.107	0
944	1553	0.108	0
944	1614	0.113	0
944	1710	0.121	0
944	1712	0.122	0
944	1768	0.126	0
944	1773	0.127	0
944	1783	0.128	0
944	1829	0.131	0
944	1834	0.132	0
944	1847	0.133	0
944	1893	0.136	0
944	1895	0.137	0
944	1908	0.138	0
944	1969	0.143	0
944	2065	0.151	0
944	2067	0.152	0
944	2123	0.156	0
944	2128	0.157	0
944	2138	0.158	0
944	2184	0.161	0
944	2189	0.162	0
944	2202	0.163	0
944	2248	0.166	0
944	2250	0.167	0
944	2263	0.168	0
944	2324	0.173	0
944	2420	0.181	0
944	2422	0.182	0
944	2478	0.186	0
944	2483	0.187	0
944	2493	0.188	0
944	2539	0.191	0
944	2544	0.192	0
944	2557	0.193	0
944	2603	0.196	0
944	2605	0.197	0
944	2618	0.198	0
944	2682	0.203	0
944	2873	0.211	0
944	2875	0.212	0
944	2931	0.216	0
944	2936	0.217	0
944	2946	0.218	0
944	2992	0.221	0
944	2997	0.222	0
944	3010	0.223	0
944	3056	0.226	0
944	3058	0.227	0
944	3071	0.228	0
944	3132	0.233	0
944	3228	0.241	0
944	3230	0.242	0
944	3286	0.246	0
944	3291	0.247	0
944	3301	0.248	0
944	3347	0.251	0
944	3352	0.252	0
944	3365	0.253	0
944	3411	0.256	0
944	3413	0.257	0
944	3521	0.258	0
944	3582	0.263	0
944	3678	0.271	0
944	3680	0.272	0
944	3736	0.276	0
944	3741	0.277	0
944	3751	0.278	0
944	3797	0.281	0
944	3802	0.282	0
944	3815	0.283	0
944	3861	0.286	0
944	3863	0.287	0
944	3876	0.288	0
944	3937	0.293	0
944	4036	0.301	0
944	4038	0.302	0
944	4094	0.306	0
944	4099	0.307	0
944	4109	0.308	0
944	4155	0.311	0
944	4160	0.312	0
944	4173	0.313	0
944	4219	0.316	0
944	4221	0.317	0
944	4234	0.318	0
944	4295	0.323	0
944	4391	0.331	0
944	4393	0.332	0
944	4449	0.336	0
944	4454	0.337	0
944	4464	0.338	0
944	4510	0.341	0
944	4515	0.342	0
944	4528	0.343	0
944	4574	0.346	0
944	4576	0.347	0
944	4589	0.348	0
944	4650	0.353	0
944	4746	0.361	0
944	4748	0.362	0
944	4804	0.366	0
944	4809	0.367	0
944	4819	0.368	0
944	4865	0.371	0
944	4870	0.372	0
944	4883	0.373	0
944	4929	0.376	0
944	4931	0.377	0
944	4944	0.378	0
944	5005	0.383	0
944	5101	0.391	0
944	5103	0.392	0
944	5159	0.396	0
944	5164	0.397	0
944	5174	0.398	0
944	5223	0.401	0
944	5228	0.402	0
944	5241	0.403	0
944	5287	0.406	0
944	5289	0.407	0
944	5310	0.408	0
944	5371	0.413	0
944	5467	0.421	0
944	5469	0.422	0
944	5525	0.426	0
944	5530	0.427	0
944	5540	0.428	0
944	5586	0.431	0
944	5591	0.432	0
944	5604	0.433	0
944	5650	0.436	0
944	5652	0.437	0
944	5665	0.438	0
944	5726	0.443	0
944	5822	0.451	0
944	5824	0.452	0
944	5880	0.456	0
944	5885	0.457	0
944	5903	0.458	0
944	5949	0.461	0
944	5954	0.462	0
944	5967	0.463	0
944	6013	0.466	0
944	6015	0.467	0
944	6028	0.468	0
944	6089	0.473	0
944	6185	0.481	0
944	6187	0.482	0
944	6243	0.486	0
944	6248	0.487	0
944	6258	0.488	0
944	6304	0.491	0
944	6309	0.492	0
944	6322	0.493	0
944	6368	0.496	0
944	6370	0.497	0
944	6383	0.498	0
944	6447	0.503	0
944	6543	0.511	0
944	6545	0.512	0
944	6601	0.516	0
944	6606	0.517	0
944	6616	0.518	0
944	6662	0.521	0
944	6667	0.522	0
944	6680	0.523	0
944	6726	0.526	0
944	6728	0.527	0
944	6741	0.528	0
944	6802	0.533	0
944	6898	0.541	0
944	6900	0.542	0
944	6956	0.546	0
944	6961	0.547	0
944	6971	0.548	0
944	7017	0.551	0
944	7022	0.552	0
944	7035	0.553	0
944	7081	0.556	0
944	7083	0.557	0
944	7096	0.558	0
944	7157	0.563	0
944	7253	0.571	0
944	7255	0.572	0
944	7311	0.576	0
944	7316	0.577	0
944	7326	0.578	0
944	7372	0.581	0
944	7377	0.582	0
944	7390	0.583	0
944	7436	0.586	0
944	7438	0.587	0
944	7451	0.588	0
944	7512	0.593	0
944	7611	0.601	0
944	7613	0.602	0
944	7669	0.606	0
944	7674	0.607	0
944	7684	0.608	0
944	7730	0.611	0
944	7735	0.612	0
944	7748	0.613	0
944	7794	0.616	0
944	7796	0.617	0
944	7809	0.618	0
944	7870	0.623	0
944	7966	0.631	0
944	7968	0.632	0
944	8024	0.636	0
944	8029	0.637	0
944	8039	0.638	0
944	8085	0.641	0
944	8090	0.642	0
944	8103	0.643	0
944	8149	0.646	0
944	8151	0.647	0
944	8164	0.648	0
944	8225	0.653	0
944	8321	0.661	0
944	8323	0.662	0
944	8379	0.666	0
944	8384	0.667	0
944	8394	0.668	0
944	8440	0.671	0
944	8445	0.672	0
944	8458	0.673	0
944	8504	0.676	0
944	8506	0.677	0
944	8519	0.678	0
944	8580	0.683	0
944	8676	0.691	0
944	8678	0.692	0
944	8734	0.696	0
944	8739	0.697	0
944	8749	0.698	0
944	8798	0.701	0
944	8803	0.702	0
944	8816	0.703	0
944	8862	0.706	0
944	8864	0.707	0
944	8877	0.708	0
944	8938	0.713	0
944	9034	0.721	0
944	9036	0.722	0
944	9092	0.726	0
944	9097	0.727	0
944	9107	0.728	0
944	9153	0.731	0
944	9158	0.732	0
944	9171	0.733	0
944	9217	0.736	0
944	9219	0.737	0
944	9232	0.738	0
944	9293	0.743	0
944	9389	0.751	0
944	9391	0.752	0
944	9447	0.756	0
944	9452	0.757	0
944	9462	0.758	0
944	9508	0.761	0
944	9513	0.762	0
944	9526	0.763	0
944	9572	0.766	0
944	9574	0.767	0
944	9587	0.768	0
944	9648	0.773	0
944	9744	0.781	0
944	9746	0.782	0
944	9802	0.786	0
944	9807	0.787	0
944	9817	0.788	0
944	9863	0.791	0
944	9868	0.792	0
944	9881	0.793	0
944	9927	0.796	0
944	9929	0.797	0
944	9942	0.798	0
944	10006	0.803	0
944	10102	0.811	0
944	10104	0.812	0
944	10160	0.816	0
944	10165	0.817	0
944	10175	0.818	0
944	10221	0.821	0
944	10226	0.822	0
944	10239	0.823	0
944	10285	0.826	0
944	10287	0.827	0
944	10300	0.828	0
944	10361	0.833	0
944	10457	0.841	0
944	10459	0.842	0
944	10515	0.846	0
944	10520	0.847	0
944	10530	0.848	0
944	10576	0.851	0
944	10581	0.852	0
944	10594	0.853	0
944	10640	0.856	0
944	10642	0.857	0
944	10655	0.858	0
944	10716	0.863	0
944	10812	0.871	0
944	10814	0.872	0
944	10870	0.876	0
944	10875	0.877	0
944	10885	0.878	0
944	10931	0.881	0
944	10936	0.882	0
944	10949	0.883	0
944	10995	0.886	0
944	10997	0.887	0
944	11010	0.888	0
944	11071	0.893	0
944	11170	0.901	0
944	11172	0.902	0
944	11228	0.906	0
944	11233	0.907	0
944	11243	0.908	0
944	11289	0.911	0
944	11294	0.912	0
944	11307	0.913	0
944	11353	0.916	0
944	11355	0.917	0
944	11368	0.918	0
944	11429	0.923	0
944	11525	0.931	0
944	11527	0.932	0
944	11583	0.936	0
944	11588	0.937	0
944	11598	0.938	0
944	11644	0.941	0
944	11649	0.942	0
944	11662	0.943	0
944	11708	0.946	0
944	11710	0.947	0
944	11723	0.948	0
944	11784	0.953	0
944	11880	0.961	0
944	11882	0.962	0
944	11938	0.966	0
944	11943	0.967	0
944	11953	0.968	0
944	11999	0.971	0
944	12004	0.972	0
944	12017	0.973	0
944	12063	0.976	0
944	12065	0.977	0
944	12078	0.978	0
944	12139	0.983	0
944	12235	0.991	0
944	12237	0.992	0
944	12293	0.996	0
944	12298	0.997	0
944	12308	0.998	0
944	12357	1.001	0
944	12362	1.002	0
944	12375	1.003	0
944	12421	1.006	0
944	12423	1.007	0
944	12436	1.008	0
944	12497	1.013	0
944	12593	1.021	0
944	12595	1.022	0
944	12651	1.026	0
944	12656	1.027	0
944	12666	1.028	0
944	12712	1.031	0
944	12717	1.032	0
944	12730	1.033	0
944	12776	1.036	0
944	12778	1.037	0
944	12791	1.038	0
944	12852	1.043	0
944	12948	1.051	0
944	12950	1.052	0
944	13006	1.056	0
944	13011	1.057	0
944	13021	1.058	0
944	13067	1.061	0
944	13072	1.062	0
944	13085	1.063	0
944	13131	1.066	0
944	13133	1.067	0
944	13146	1.068	0
944	13207	1.073	0
944	13303	1.081	0
944	13305	1.082	0
944	13361	1.086	0
944	13366	1.087	0
944	13376	1.088	0
944	13422	1.091	0
944	13427	1.092	0
944	13440	1.093	0
944	13486	1.096	0
944	13488	1.097	0
944	13501	1.098	0
944	13565	1.103	0
944	13661	1.111	0
944	13663	1.112	0
944	13719	1.116	0
944	13724	1.117	0
944	13734	1.118	0
944	13780	1.121	0
944	13785	1.122	0
944	13798	1.123	0
944	13844	1.126	0
944	13846	1.127	0
944	13859	1.128	0
944	13920	1.133	0
944	14016	1.141	0
944	14018	1.142	0
944	14074	1.146	0
944	14079	1.147	0
944	14089	1.148	0
944	14135	1.151	0
944	14140	1.152	0
944	14153	1.153	0
944	14199	1.156	0
944	14201	1.157	0
944	14214	1.158	0
944	14275	1.163	0
944	14371	1.171	0
944	14373	1.172	0
944	14429	1.176	0
944	14434	1.177	0
944	14444	1.178	0
944	14490	1.181	0
944	14495	1.182	0
944	14508	1.183	0
944	14554	1.186	0
944	14556	1.187	0
944	14569	1.188	0
944	14630	1.193	0
944	14729	1.201	0
944	14731	1.202	0
944	14787	1.206	0
944	14792	1.207	0
944	14803	1.208	0
944	14849	1.211	0
944	14854	1.212	0
944	14867	1.213	0
944	14913	1.216	0
944	14915	1.217	0
944	14928	1.218	0
944	14989	1.223	0
944	15085	1.231	0
944	15087	1.232	0
944	15143	1.236	0
944	15148	1.237	0
944	15158	1.238	0
944	15204	1.241	0
944	15209	1.242	0
944	15222	1.243	0
944	15268	1.246	0
944	15270	1.247	0
944	15283	1.248	0
944	15344	1.253	0
944	15441	1.261	0
944	15443	1.262	0
944	15499	1.266	0
944	15504	1.267	0
944	15514	1.268	0
944	15560	1.271	0
944	15565	1.272	0
944	15578	1.273	0
944	15624	1.276	0
944	15626	1.277	0
944	15639	1.278	0
944	15700	1.283	0
944	15796	1.291	0
944	15798	1.292	0
944	15854	1.296	0
944	15859	1.297	0
944	15869	1.298	0
944	15918	1.301	0
944	15923	1.302	0
944	15936	1.303	0
944	15982	1.306	0
944	15984	1.307	0
944	15997	1.308	0
944	16058	1.313	0
944	16154	1.321	0
944	16156	1.322	0
944	16212	1.326	0
944	16217	1.327	0
944	16227	1.328	0
944	16273	1.331	0
944	16278	1.332	0
944	16291	1.333	0
944	16337	1.336	0
944	16339	1.337	0
944	16352	1.338	0
944	16413	1.343	0
944	16509	1.351	0
944	16511	1.352	0
944	16567	1.356	0
944	16572	1.357	0
944	16582	1.358	0
944	16628	1.361	0
944	16633	1.362	0
944	16646	1.363	0
944	16692	1.366	0
944	16694	1.367	0
944	16707	1.368	0
944	16768	1.373	0
944	16864	1.381	0
944	16866	1.382	0
944	16922	1.386	0
944	16927	1.387	0
944	16937	1.388	0
944	16983	1.391	0
944	16988	1.392	0
944	17001	1.393	0
944	17047	1.396	0
944	17049	1.397	0
944	17062	1.398	0
944	17126	1.403	0
944	17222	1.411	0
944	17224	1.412	0
944	17280	1.416	0
944	17285	1.417	0
944	17295	1.418	0
944	17341	1.421	0
944	17346	1.422	0
944	17359	1.423	0
944	17405	1.426	0
944	17407	1.427	0
944	17420	1.428	0
944	17481	1.433	0
944	17577	1.441	0
944	17579	1.442	0
944	17635	1.446	0
944	17640	1.447	0
944	17650	1.448	0
944	17696	1.451	0
944	17701	1.452	0
944	17714	1.453	0
944	17760	1.456	0
944	17762	1.457	0
944	17775	1.458	0
944	17836	1.463	0
944	17932	1.471	0
944	17934	1.472	0
944	17990	1.476	0
944	17995	1.477	0
944	18005	1.478	0
944	18051	1.481	0
944	18056	1.482	0
944	18069	1.483	0
944	18115	1.486	0
944	18117	1.487	0
944	18130	1.488	0
944	18191	1.493	0
944	18290	1.501	0
944	18292	1.502	0
944	18348	1.506	0
944	18353	1.507	0
944	18363	1.508	0
944	18409	1.511	0
944	18414	1.512	0
944	18427	1.513	0
944	18473	1.516	0
944	18475	1.517	0
944	18488	1.518	0
944	18549	1.523	0
944	18645	1.531	0
944	18647	1.532	0
944	18703	1.536	0
944	18708	1.537	0
944	18718	1.538	0
944	18764	1.541	0
944	18769	1.542	0
944	18782	1.543	0
944	18828	1.546	0
944	18830	1.547	0
944	18843	1.548	0
944	18904	1.553	0
944	19000	1.561	0
944	19002	1.562	0
944	19058	1.566	0
944	19063	1.567	0
944	19073	1.568	0
944	19119	1.571	0
944	19124	1.572	0
944	19137	1.573	0
944	19183	1.576	0
944	19185	1.577	0
944	19198	1.578	0
944	19259	1.583	0
944	19355	1.591	0
944	19357	1.592	0
944	19413	1.596	0
944	19418	1.597	0
944	19428	1.598	0
944	19477	1.601	0
944	19482	1.602	0
944	19495	1.603	0
944	19541	1.606	0
944	19543	1.607	0
944	19556	1.608	0
944	19617	1.613	0
944	19713	1.621	0
944	19715	1.622	0
944	19771	1.626	0
944	19776	1.627	0
944	19786	1.628	0
944	19832	1.631	0
944	19837	1.632	0
944	19850	1.633	0
944	19896	1.636	0
944	19898	1.637	0
944	19911	1.638	0
944	19972	1.643	0
944	20068	1.651	0
944	20070	1.652	0
944	20126	1.656	0
944	20131	1.657	0
944	20141	1.658	0
944	20187	1.661	0
944	20192	1.662	0
944	20205	1.663	0
944	20251	1.666	0
944	20253	1.667	0
944	20266	1.668	0
944	20327	1.673	0
944	20423	1.681	0
944	20425	1.682	0
944	20481	1.686	0
944	20486	1.687	0
944	20496	1.688	0
944	20542	1.691	0
944	20547	1.692	0
944	20560	1.693	0
944	20606	1.696	0
944	20608	1.697	0
944	20621	1.698	0
944	20685	1.703	0
944	20781	1.711	0
944	20783	1.712	0
944	20839	1.716	0
944	20844	1.717	0
944	20854	1.718	0
944	20900	1.721	0
944	20905	1.722	0
944	20918	1.723	0
944	20964	1.726	0
944	20966	1.727	0
944	20979	1.728	0
944	21040	1.733	0
944	21136	1.741	0
944	21138	1.742	0
944	21194	1.746	0
944	21199	1.747	0
944	21209	1.748	0
944	21255	1.751	0
944	21260	1.752	0
944	21273	1.753	0
944	21319	1.756	0
944	21321	1.757	0
944	21334	1.758	0
944	21395	1.763	0
944	21491	1.771	0
944	21493	1.772	0
944	21549	1.776	0
944	21554	1.777	0
944	21564	1.778	0
944	21610	1.781	0
944	21615	1.782	0
944	21628	1.783	0
944	21674	1.786	0
944	21676	1.787	0
944	21689	1.788	0
944	21750	1.793	0
944	21849	1.801	0
944	21851	1.802	0
944	21907	1.806	0
944	21912	1.807	0
944	21922	1.808	0
944	21968	1.811	0
944	21973	1.812	0
944	21986	1.813	0
944	22032	1.816	0
944	22034	1.817	0
944	22047	1.818	0
944	22108	1.823	0
944	22204	1.831	0
944	22206	1.832	0
944	22262	1.836	0
944	22267	1.837	0
944	22277	1.838	0
944	22323	1.841	0
944	22328	1.842	0
944	22341	1.843	0
944	22387	1.846	0
944	22389	1.847	0
944	22402	1.848	0
944	22463	1.853	0
944	22559	1.861	0
944	22561	1.862	0
944	22617	1.866	0
944	22622	1.867	0
944	22632	1.868	0
944	22678	1.871	0
944	22683	1.872	0
944	22696	1.873	0
944	22742	1.876	0
944	22744	1.877	0
944	22757	1.878	0
944	22818	1.883	0
944	22914	1.891	0
944	22916	1.892	0
944	22972	1.896	0
944	22977	1.897	0
944	22987	1.898	0
944	23036	1.901	0
944	23041	1.902	0
944	23054	1.903	0
944	23100	1.906	0
944	23102	1.907	0
944	23115	1.908	0
944	23176	1.913	0
944	23272	1.921	0
944	23274	1.922	0
944	23330	1.926	0
944	23335	1.927	0
944	23345	1.928	0
944	23391	1.931	0
944	23396	1.932	0
944	23409	1.933	0
944	23455	1.936	0
944	23457	1.937	0
944	23470	1.938	0
944	23531	1.943	0
944	23627	1.951	0
944	23629	1.952	0
944	23685	1.956	0
944	23690	1.957	0
944	23700	1.958	0
944	23746	1.961	0
944	23751	1.962	0
944	23764	1.963	0
944	23810	1.966	0
944	23812	1.967	0
944	23825	1.968	0
944	23886	1.973	0
944	23982	1.981	0
944	23984	1.982	0
944	24040	1.986	0
944	24045	1.987	0
944	24055	1.988	0
944	24101	1.991	0
944	24106	1.992	0
944	24119	1.993	0
944	24165	1.996	0
944	24167	1.997	0
944	24180	1.998	0
944	24244	2.003	0
944	24340	2.011	0
944	24342	2.012	0
944	24398	2.016	0
944	24403	2.017	0
944	24413	2.018	0
944	24459	2.021	0
944	24464	2.022	0
944	24477	2.023	0
944	24523	2.026	0
944	24525	2.027	0
944	24538	2.028	0
944	24599	2.033	0
944	24695	2.041	0
944	24697	2.042	0
944	24753	2.046	0
944	24758	2.047	0
944	24768	2.048	0
944	24814	2.051	0
944	24819	2.052	0
944	24832	2.053	0
944	24878	2.056	0
944	24880	2.057	0
944	24893	2.058	0
944	24954	2.063	0
944	25050	2.071	0
944	25052	2.072	0
944	25108	2.076	0
944	25113	2.077	0
944	25123	2.078	0
944	25169	2.081	0
944	25174	2.082	0
944	25187	2.083	0
944	25233	2.086	0
944	25235	2.087	0
944	25248	2.088	0
944	25309	2.093	0
944	25408	2.101	0
944	25410	2.102	0
944	25466	2.106	0
944	25471	2.107	0
944	25481	2.108	0
944	25527	2.111	0
944	25532	2.112	0
944	25545	2.113	0
944	25591	2.116	0
944	25593	2.117	0
944	25606	2.118	0
944	25667	2.123	0
944	25763	2.131	0
944	25765	2.132	0
944	25821	2.136	0
944	25826	2.137	0
944	25836	2.138	0
944	25882	2.141	0
944	25887	2.142	0
944	25900	2.143	0
944	25946	2.146	0
944	25948	2.147	0
944	25961	2.148	0
944	26022	2.153	0
944	26118	2.161	0
944	26120	2.162	0
944	26176	2.166	0
944	26181	2.167	0
944	26191	2.168	0
944	26237	2.171	0
944	26242	2.172	0
944	26255	2.173	0
944	26301	2.176	0
944	26303	2.177	0
944	26316	2.178	0
944	26377	2.183	0
944	26473	2.191	0
944	26475	2.192	0
944	26531	2.196	0
944	26536	2.197	0
944	26546	2.198	0
944	26595	2.201	0
944	26600	2.202	0
944	26613	2.203	0
944	26659	2.206	0
944	26661	2.207	0
944	26674	2.208	0
944	26735	2.213	0
944	26831	2.221	0
944	26833	2.222	0
944	26889	2.226	0
944	26894	2.227	0
944	26904	2.228	0
944	26950	2.231	0
944	26955	2.232	0
944	26968	2.233	0
944	27014	2.236	0
944	27016	2.237	0
944	27029	2.238	0
944	27090	2.243	0
944	27186	2.251	0
944	27188	2.252	0
944	27244	2.256	0
944	27249	2.257	0
944	27259	2.258	0
944	27305	2.261	0
944	27310	2.262	0
944	27323	2.263	0
944	27369	2.266	0
944	27371	2.267	0
944	27384	2.268	0
944	27445	2.273	0
944	27541	2.281	0
944	27543	2.282	0
944	27599	2.286	0
944	27604	2.287	0
944	27614	2.288	0
944	27660	2.291	0
944	27665	2.292	0
944	27678	2.293	0
944	27724	2.296	0
944	27726	2.297	0
944	27739	2.298	0
944	27803	2.303	0
944	27899	2.311	0
944	27901	2.312	0
944	27957	2.316	0
944	27962	2.317	0
944	27972	2.318	0
944	28018	2.321	0
944	28023	2.322	0
944	28036	2.323	0
944	28082	2.326	0
944	28084	2.327	0
944	28097	2.328	0
944	28158	2.333	0
944	28254	2.341	0
944	28256	2.342	0
944	28312	2.346	0
944	28317	2.347	0
944	28327	2.348	0
944	28373	2.351	0
944	28378	2.352	0
944	28391	2.353	0
944	28437	2.356	0
944	28439	2.357	0
944	28452	2.358	0
944	28513	2.363	0
944	28609	2.371	0
944	28611	2.372	0
944	28667	2.376	0
944	28672	2.377	0
944	28682	2.378	0
944	28728	2.381	0
944	28733	2.382	0
944	28746	2.383	0
944	28792	2.386	0
944	28794	2.387	0
944	28807	2.388	0
944	28868	2.393	0
944	28967	2.401	0
944	28969	2.402	0
944	29025	2.406	0
944	29030	2.407	0
944	29040	2.408	0
944	29086	2.411	0
944	29091	2.412	0
944	29104	2.413	0
944	29150	2.416	0
944	29152	2.417	0
944	29165	2.418	0
944	29226	2.423	0
944	29322	2.431	0
944	29324	2.432	0
944	29380	2.436	0
944	29385	2.437	0
944	29395	2.438	0
944	29441	2.441	0
944	29446	2.442	0
944	29459	2.443	0
944	29505	2.446	0
944	29507	2.447	0
944	29520	2.448	0
944	29581	2.453	0
944	29677	2.461	0
944	29679	2.462	0
944	29735	2.466	0
944	29740	2.467	0
944	29750	2.468	0
944	29796	2.471	0
944	29801	2.472	0
944	29814	2.473	0
944	29860	2.476	0
944	29862	2.477	0
944	29875	2.478	0
944	29936	2.483	0
944	30032	2.491	0
944	30034	2.492	0
944	30090	2.496	0
944	30095	2.497	0
944	30105	2.498	0
944	30154	2.501	0
944	30159	2.502	0
944	30172	2.503	0
944	30218	2.506	0
944	30220	2.507	0
944	30233	2.508	0
944	30294	2.513	0
944	30390	2.521	0
944	30392	2.522	0
944	30448	2.526	0
944	30453	2.527	0
944	30463	2.528	0
944	30509	2.531	0
944	30514	2.532	0
944	30527	2.533	0
944	30573	2.536	0
944	30575	2.537	0
944	30588	2.538	0
944	30649	2.543	0
944	30745	2.551	0
944	30747	2.552	0
944	30803	2.556	0
944	30808	2.557	0
944	30818	2.558	0
944	30864	2.561	0
944	30869	2.562	0
944	30882	2.563	0
944	30928	2.566	0
944	30930	2.567	0
944	30943	2.568	0
944	31004	2.573	0
944	31100	2.581	0
944	31102	2.582	0
944	31158	2.586	0
944	31163	2.587	0
944	31173	2.588	0
944	31219	2.591	0
944	31224	2.592	0
944	31237	2.593	0
944	31283	2.596	0
944	31285	2.597	0
944	31298	2.598	0
944	31362	2.603	0
944	31458	2.611	0
944	31460	2.612	0
944	31516	2.616	0
944	31521	2.617	0
944	31531	2.618	0
944	31577	2.621	0
944	31582	2.622	0
944	31595	2.623	0
944	31641	2.626	0
944	31643	2.627	0
944	31656	2.628	0
944	31717	2.633	0
944	31813	2.641	0
944	31815	2.642	0
944	31871	2.646	0
944	31876	2.647	0
944	31886	2.648	0
944	31932	2.651	0
944	31937	2.652	0
944	31950	2.653	0
944	31996	2.656	0
944	31998	2.657	0
944	32011	2.658	0
944	32072	2.663	0
944	32168	2.671	0
944	32170	2.672	0
944	32226	2.676	0
944	32231	2.677	0
944	32241	2.678	0
944	32287	2.681	0
944	32292	2.682	0
944	32305	2.683	0
944	32351	2.686	0
944	32353	2.687	0
944	32366	2.688	0
944	32427	2.693	0
944	32526	2.701	0
944	32528	2.702	0
944	32584	2.706	0
944	32589	2.707	0
944	32599	2.708	0
944	32645	2.711	0
944	32650	2.712	0
944	32663	2.713	0
944	32709	2.716	0
944	32711	2.717	0
944	32724	2.718	0
944	32785	2.723	0
944	32881	2.731	0
944	32883	2.732	0
944	32939	2.736	0
944	32944	2.737	0
944	32954	2.738	0
944	33000	2.741	0
944	33005	2.742	0
944	33018	2.743	0
944	33064	2.746	0
944	33066	2.747	0
944	33079	2.748	0
944	33140	2.753	0
944	33236	2.761	0
944	33238	2.762	0
944	33294	2.766	0
944	33299	2.767	0
944	33309	2.768	0
944	33355	2.771	0
944	33360	2.772	0
944	33373	2.773	0
944	33419	2.776	0
944	33421	2.777	0
944	33434	2.778	0
944	33495	2.783	0
944	33591	2.791	0
944	33593	2.792	0
944	33649	2.796	0
944	33654	2.797	0
944	33664	2.798	0
944	33713	2.801	0
944	33718	2.802	0
944	33731	2.803	0
944	33777	2.806	0
944	33779	2.807	0
944	33792	2.808	0
944	33853	2.813	0
944	33949	2.821	0
944	33951	2.822	0
944	34007	2.826	0
944	34012	2.827	0
944	34022	2.828	0
944	34068	2.831	0
944	34073	2.832	0
944	34086	2.833	0
944	34132	2.836	0
944	34134	2.837	0
944	34147	2.838	0
944	34208	2.843	0
944	34304	2.851	0
944	34306	2.852	0
944	34362	2.856	0
944	34367	2.857	0
944	34377	2.858	0
944	34423	2.861	0
944	34428	2.862	0
944	34441	2.863	0
944	34487	2.866	0
944	34489	2.867	0
944	34502	2.868	0
944	34563	2.873	0
944	34659	2.881	0
944	34661	2.882	0
944	34717	2.886	0
944	34722	2.887	0
944	34732	2.888	0
944	34778	2.891	0
944	34783	2.892	0
944	34796	2.893	0
944	34842	2.896	0
944	34844	2.897	0
944	34857	2.898	0
944	34921	2.903	0
944	35017	2.911	0
944	35019	2.912	0
944	35075	2.916	0
944	35080	2.917	0
944	35090	2.918	0
944	35136	2.921	0
944	35141	2.922	0
944	35154	2.923	0
944	35200	2.926	0
944	35202	2.927	0
944	35215	2.928	0
944	35276	2.933	0
944	35372	2.941	0
944	35374	2.942	0
944	35430	2.946	0
944	35435	2.947	0
944	35445	2.948	0
944	35491	2.951	0
944	35496	2.952	0
944	35509	2.953	0
944	35555	2.956	0
944	35557	2.957	0
944	35570	2.958	0
944	35631	2.963	0
944	35727	2.971	0
944	35729	2.972	0
944	35785	2.976	0
944	35790	2.977	0
944	35800	2.978	0
944	35846	2.981	0
944	35851	2.982	0
944	35864	2.983	0
944	35910	2.986	0
944	35912	2.987	0
944	35925	2.988	0
944	35986	2.993	0
944	36085	3.001	0
944	36087	3.002	0
944	36143	3.006	0
944	36148	3.007	0
944	36158	3.008	0
944	36204	3.011	0
944	36209	3.012	0
944	36222	3.013	0
944	36268	3.016	0
944	36270	3.017	0
944	36283	3.018	0
944	36344	3.023	0
944	36448	3.031	0
944	36453	3.032	0
944	36527	3.036	0
944	36535	3.037	0
944	36548	3.038	0
947	595	0.033	1
947	634	0.036	2
947	669	0.038	3
947	705	0.041	4
947	740	0.043	5
947	779	0.046	6
947	805	0.048	7
947	853	0.051	8
947	876	0.053	9
947	927	0.056	10
947	988	0.058	11
952	595	0.033	454
952	634	0.036	454
952	669	0.038	454
952	705	0.041	454
952	740	0.043	454
952	779	0.046	454
952	805	0.048	454
952	853	0.051	454
952	876	0.053	454
952	927	0.056	454
952	988	0.058	454
957	595	0.033	1
957	634	0.036	2
957	669	0.038	3
957	705	0.041	4
957	740	0.043	5
957	779	0.046	6
957	805	0.048	7
957	853	0.051	8
957	876	0.053	9
957	927	0.056	10
957	988	0.058	11
957	1397	0.096	12
957	1466	0.101	13
957	1538	0.106	14
957	1710	0.121	15
957	1768	0.126	16
957	1829	0.131	17
957	1893	0.136	18
957	2065	0.151	19
957	2123	0.156	20
957	2184	0.161	21
957	2248	0.166	22
957	2420	0.181	23
957	2478	0.186	24
957	2539	0.191	25
957	2603	0.196	26
957	2873	0.211	27
957	2931	0.216	28
957	2992	0.221	29
957	3056	0.226	30
957	3228	0.241	31
957	3286	0.246	32
957	3347	0.251	33
957	3411	0.256	34
957	3678	0.271	35
957	3736	0.276	36
957	3797	0.281	37
957	3861	0.286	38
957	4036	0.301	39
957	4094	0.306	40
957	4155	0.311	41
957	4219	0.316	42
957	4391	0.331	43
957	4449	0.336	44
957	4510	0.341	45
957	4574	0.346	46
957	4746	0.361	47
957	4804	0.366	48
957	4865	0.371	49
957	4929	0.376	50
957	5101	0.391	51
957	5159	0.396	52
957	5223	0.401	53
957	5287	0.406	54
957	5467	0.421	55
957	5525	0.426	56
957	5586	0.431	57
957	5650	0.436	58
957	5822	0.451	59
957	5880	0.456	60
957	5949	0.461	61
957	6013	0.466	62
957	6185	0.481	63
957	6243	0.486	64
957	6304	0.491	65
957	6368	0.496	66
957	6543	0.511	67
957	6601	0.516	68
957	6662	0.521	69
957	6726	0.526	70
957	6898	0.541	71
957	6956	0.546	72
957	7017	0.551	73
957	7081	0.556	74
957	7253	0.571	75
957	7311	0.576	76
957	7372	0.581	77
957	7436	0.586	78
957	7611	0.601	79
957	7669	0.606	80
957	7730	0.611	81
957	7794	0.616	82
957	7966	0.631	83
957	8024	0.636	84
957	8085	0.641	85
957	8149	0.646	86
957	8321	0.661	87
957	8379	0.666	88
957	8440	0.671	89
957	8504	0.676	90
957	8676	0.691	91
957	8734	0.696	92
957	8798	0.701	93
957	8862	0.706	94
957	9034	0.721	95
957	9092	0.726	96
957	9153	0.731	97
957	9217	0.736	98
957	9389	0.751	99
957	9447	0.756	100
957	9508	0.761	101
957	9572	0.766	102
957	9744	0.781	103
957	9802	0.786	104
957	9863	0.791	105
957	9927	0.796	106
957	10102	0.811	107
957	10160	0.816	108
957	10221	0.821	109
957	10285	0.826	110
957	10457	0.841	111
957	10515	0.846	112
957	10576	0.851	113
957	10640	0.856	114
957	10812	0.871	115
957	10870	0.876	116
957	10931	0.881	117
957	10995	0.886	118
957	11170	0.901	119
957	11228	0.906	120
957	11289	0.911	121
957	11353	0.916	122
957	11525	0.931	123
957	11583	0.936	124
957	11644	0.941	125
957	11708	0.946	126
957	11880	0.961	127
957	11938	0.966	128
957	11999	0.971	129
957	12063	0.976	130
957	12235	0.991	131
957	12293	0.996	132
957	12357	1.001	133
957	12421	1.006	134
957	12593	1.021	135
957	12651	1.026	136
957	12712	1.031	137
957	12776	1.036	138
957	12948	1.051	139
957	13006	1.056	140
957	13067	1.061	141
957	13131	1.066	142
957	13303	1.081	143
957	13361	1.086	144
957	13422	1.091	145
957	13486	1.096	146
957	13661	1.111	147
957	13719	1.116	148
957	13780	1.121	149
957	13844	1.126	150
957	14016	1.141	151
957	14074	1.146	152
957	14135	1.151	153
957	14199	1.156	154
957	14371	1.171	155
957	14429	1.176	156
957	14490	1.181	157
957	14554	1.186	158
957	14729	1.201	159
957	14787	1.206	160
957	14849	1.211	161
957	14913	1.216	162
957	15085	1.231	163
957	15143	1.236	164
957	15204	1.241	165
957	15268	1.246	166
957	15441	1.261	167
957	15499	1.266	168
957	15560	1.271	169
957	15624	1.276	170
957	15796	1.291	171
957	15854	1.296	172
957	15918	1.301	173
957	15982	1.306	174
957	16154	1.321	175
957	16212	1.326	176
957	16273	1.331	177
957	16337	1.336	178
957	16509	1.351	179
957	16567	1.356	180
957	16628	1.361	181
957	16692	1.366	182
957	16864	1.381	183
957	16922	1.386	184
957	16983	1.391	185
957	17047	1.396	186
957	17222	1.411	187
957	17280	1.416	188
957	17341	1.421	189
957	17405	1.426	190
957	17577	1.441	191
957	17635	1.446	192
957	17696	1.451	193
957	17760	1.456	194
957	17932	1.471	195
957	17990	1.476	196
957	18051	1.481	197
957	18115	1.486	198
957	18290	1.501	199
957	18348	1.506	200
957	18409	1.511	201
957	18473	1.516	202
957	18645	1.531	203
957	18703	1.536	204
957	18764	1.541	205
957	18828	1.546	206
957	19000	1.561	207
957	19058	1.566	208
957	19119	1.571	209
957	19183	1.576	210
957	19355	1.591	211
957	19413	1.596	212
957	19477	1.601	213
957	19541	1.606	214
957	19713	1.621	215
957	19771	1.626	216
957	19832	1.631	217
957	19896	1.636	218
957	20068	1.651	219
957	20126	1.656	220
957	20187	1.661	221
957	20251	1.666	222
957	20423	1.681	223
957	20481	1.686	224
957	20542	1.691	225
957	20606	1.696	226
957	20781	1.711	227
957	20839	1.716	228
957	20900	1.721	229
957	20964	1.726	230
957	21136	1.741	231
957	21194	1.746	232
957	21255	1.751	233
957	21319	1.756	234
957	21491	1.771	235
957	21549	1.776	236
957	21610	1.781	237
957	21674	1.786	238
957	21849	1.801	239
957	21907	1.806	240
957	21968	1.811	241
957	22032	1.816	242
957	22204	1.831	243
957	22262	1.836	244
957	22323	1.841	245
957	22387	1.846	246
957	22559	1.861	247
957	22617	1.866	248
957	22678	1.871	249
957	22742	1.876	250
957	22914	1.891	251
957	22972	1.896	252
957	23036	1.901	253
957	23100	1.906	254
957	23272	1.921	255
957	23330	1.926	256
957	23391	1.931	257
957	23455	1.936	258
957	23627	1.951	259
957	23685	1.956	260
957	23746	1.961	261
957	23810	1.966	262
957	23982	1.981	263
957	24040	1.986	264
957	24101	1.991	265
957	24165	1.996	266
957	24340	2.011	267
957	24398	2.016	268
957	24459	2.021	269
957	24523	2.026	270
957	24695	2.041	271
957	24753	2.046	272
957	24814	2.051	273
957	24878	2.056	274
957	25050	2.071	275
957	25108	2.076	276
957	25169	2.081	277
957	25233	2.086	278
957	25408	2.101	279
957	25466	2.106	280
957	25527	2.111	281
957	25591	2.116	282
957	25763	2.131	283
957	25821	2.136	284
957	25882	2.141	285
957	25946	2.146	286
957	26118	2.161	287
957	26176	2.166	288
957	26237	2.171	289
957	26301	2.176	290
957	26473	2.191	291
957	26531	2.196	292
957	26595	2.201	293
957	26659	2.206	294
957	26831	2.221	295
957	26889	2.226	296
957	26950	2.231	297
957	27014	2.236	298
957	27186	2.251	299
957	27244	2.256	300
957	27305	2.261	301
957	27369	2.266	302
957	27541	2.281	303
957	27599	2.286	304
957	27660	2.291	305
957	27724	2.296	306
957	27899	2.311	307
957	27957	2.316	308
957	28018	2.321	309
957	28082	2.326	310
957	28254	2.341	311
957	28312	2.346	312
957	28373	2.351	313
957	28437	2.356	314
957	28609	2.371	315
957	28667	2.376	316
957	28728	2.381	317
957	28792	2.386	318
957	28967	2.401	319
957	29025	2.406	320
957	29086	2.411	321
957	29150	2.416	322
957	29322	2.431	323
957	29380	2.436	324
957	29441	2.441	325
957	29505	2.446	326
957	29677	2.461	327
957	29735	2.466	328
957	29796	2.471	329
957	29860	2.476	330
957	30032	2.491	331
957	30090	2.496	332
957	30154	2.501	333
957	30218	2.506	334
957	30390	2.521	335
957	30448	2.526	336
957	30509	2.531	337
957	30573	2.536	338
957	30745	2.551	339
957	30803	2.556	340
957	30864	2.561	341
957	30928	2.566	342
957	31100	2.581	343
957	31158	2.586	344
957	31219	2.591	345
957	31283	2.596	346
957	31458	2.611	347
957	31516	2.616	348
957	31577	2.621	349
957	31641	2.626	350
957	31813	2.641	351
957	31871	2.646	352
957	31932	2.651	353
957	31996	2.656	354
957	32168	2.671	355
957	32226	2.676	356
957	32287	2.681	357
957	32351	2.686	358
957	32526	2.701	359
957	32584	2.706	360
957	32645	2.711	361
957	32709	2.716	362
957	32881	2.731	363
957	32939	2.736	364
957	33000	2.741	365
957	33064	2.746	366
957	33236	2.761	367
957	33294	2.766	368
957	33355	2.771	369
957	33419	2.776	370
957	33591	2.791	371
957	33649	2.796	372
957	33713	2.801	373
957	33777	2.806	374
957	33949	2.821	375
957	34007	2.826	376
957	34068	2.831	377
957	34132	2.836	378
957	34304	2.851	379
957	34362	2.856	380
957	34423	2.861	381
957	34487	2.866	382
957	34659	2.881	383
957	34717	2.886	384
957	34778	2.891	385
957	34842	2.896	386
957	35017	2.911	387
957	35075	2.916	388
957	35136	2.921	389
957	35200	2.926	390
957	35372	2.941	391
957	35430	2.946	392
957	35491	2.951	393
957	35555	2.956	394
957	35727	2.971	395
957	35785	2.976	396
957	35846	2.981	397
957	35910	2.986	398
957	36085	3.001	399
957	36143	3.006	400
957	36204	3.011	401
957	36268	3.016	402
957	36448	3.031	403
957	36527	3.036	404
958	595	0.033	50
958	634	0.036	50
958	669	0.038	50
958	705	0.041	50
958	740	0.043	50
958	779	0.046	50
958	805	0.048	50
958	853	0.051	50
958	876	0.053	50
958	927	0.056	50
958	988	0.058	50
958	1397	0.096	413
958	1466	0.101	51
958	1538	0.106	51
958	1710	0.121	413
958	1768	0.126	51
958	1829	0.131	51
958	1893	0.136	51
958	2065	0.151	413
958	2123	0.156	51
958	2184	0.161	51
[...]
1150	312	0.0070001912	2
1150	2748	0.2070003824	0
1150	2748	0.2070003824	2
1150	2748	0.2070003824	4
1150	2748	0.2070003824	6
1150	2748	0.2070003824	8
1150	2748	0.2070003824	10
1150	2748	0.2070003824	12
1150	2748	0.2070003824	14
1150	2748	0.2070003824	16
1150	2748	0.2070003824	18
1150	2748	0.2070003824	20
1150	2748	0.2070003824	22
1150	2748	0.2070003824	24
1150	2748	0.2070003824	26
1150	2748	0.2070003824	28
1150	2748	0.2070003824	30
1150	2748	0.2070003824	32
1150	5306	0.4070008136	30
1150	5306	0.4070008136	28
1150	5306	0.4070008136	26
1150	5306	0.4070008136	24
1150	5306	0.4070008136	22
1150	5306	0.4070008136	20
1150	5306	0.4070008136	18
1150	5306	0.4070008136	16
1150	5306	0.4070008136	14
1150	5306	0.4070008136	12
1150	5306	0.4070008136	10
1150	5306	0.4070008136	8
1150	5306	0.4070008136	6
1150	5306	0.4070008136	4
1150	5306	0.4070008136	2
1150	5306	0.4070008136	0
1151	312	0.0070001912	0
1151	2748	0.2070003824	0
1151	5306	0.4070008136	0
1152	312	0.0070001912	0
1152	2748	0.2070003824	0
1152	5306	0.4070008136	0
1161	312	0.0070001912	65533
1161	2748	0.2070003824	65535
1161	5306	0.4070008136	65535
1162	62	0.0000001228	65535
1162	312	0.0070001912	65533
1162	2748	0.2070003824	65535
1162	5306	0.4070008136	65535
1165	35	0	0
1171	935	0.057	2
1171	967	0.0570001912	0
1171	967	0.0570001912	2
1171	3430	0.2570003824	0
1171	3430	0.2570003824	2
1171	3430	0.2570003824	4
1171	3430	0.2570003824	6
1171	3430	0.2570003824	8
1171	3430	0.2570003824	10
1171	3430	0.2570003824	12
1171	3430	0.2570003824	14
1171	3430	0.2570003824	16
1171	3430	0.2570003824	18
1171	3430	0.2570003824	20
1171	3430	0.2570003824	22
1171	3430	0.2570003824	24
1171	3430	0.2570003824	26
1171	3430	0.2570003824	28
1171	3430	0.2570003824	30
1171	3430	0.2570003824	32
1171	5902	0.4570008136	30
1171	5902	0.4570008136	28
1171	5902	0.4570008136	26
1171	5902	0.4570008136	24
1171	5902	0.4570008136	22
1171	5902	0.4570008136	20
1171	5902	0.4570008136	18
1171	5902	0.4570008136	16
1171	5902	0.4570008136	14
1171	5902	0.4570008136	12
1171	5902	0.4570008136	10
1171	5902	0.4570008136	8
1171	5902	0.4570008136	6
1171	5902	0.4570008136	4
1171	5902	0.4570008136	2
1171	5902	0.4570008136	0
1172	935	0.057	2
1172	967	0.0570001912	0
1172	967	0.0570001912	2
1172	3430	0.2570003824	0
1172	3430	0.2570003824	2
1172	3430	0.2570003824	4
1172	3430	0.2570003824	6
1172	3430	0.2570003824	8
1172	3430	0.2570003824	10
1172	3430	0.2570003824	12
1172	3430	0.2570003824	14
1172	3430	0.2570003824	16
1172	3430	0.2570003824	18
1172	3430	0.2570003824	20
1172	3430	0.2570003824	22
1172	3430	0.2570003824	24
1172	3430	0.2570003824	26
1172	3430	0.2570003824	28
1172	3430	0.2570003824	30
1172	3430	0.2570003824	32
1172	5902	0.4570008136	30
1172	5902	0.4570008136	28
1172	5902	0.4570008136	26
1172	5902	0.4570008136	24
1172	5902	0.4570008136	22
1172	5902	0.4570008136	20
1172	5902	0.4570008136	18
1172	5902	0.4570008136	16
1172	5902	0.4570008136	14
1172	5902	0.4570008136	12
1172	5902	0.4570008136	10
1172	5902	0.4570008136	8
1172	5902	0.4570008136	6
1172	5902	0.4570008136	4
1172	5902	0.4570008136	2
1172	5902	0.4570008136	0
1173	967	0.0570001912	0
1173	3430	0.2570003824	0
1173	5902	0.4570008136	0
1174	967	0.0570001912	0
1174	3430	0.2570003824	0
1174	5902	0.4570008136	0
1183	967	0.0570001912	65533
1183	3430	0.2570003824	65535
1183	5902	0.4570008136	65535
1184	61	0.0000001228	65535
1184	967	0.0570001912	65533
1184	3430	0.2570003824	65535
1184	5902	0.4570008136	65535
1187	40	0	0
1188	955	0.0570000972	65533
1188	3423	0.2570002884	65535
1188	5895	0.4570007196	65535
1192	955	0.0570000972	2
1192	958	0.0570000972	2
1192	976	0.0570002884	2
1192	3423	0.2570002884	0
1192	3454	0.2570007196	32
1192	3455	0.2570007196	0
1192	3456	0.2570007196	0
1192	3457	0.2570007196	0
1192	3458	0.2570007196	0
1192	3459	0.2570007196	0
1192	3460	0.2570007196	0
1192	3461	0.2570007196	0
1192	3462	0.2570007196	0
1192	3463	0.2570007196	0
1192	3464	0.2570007196	0
1192	3465	0.2570007196	0
1192	3466	0.2570007196	0
1192	3467	0.2570007196	0
1192	3468	0.2570007196	0
1192	3469	0.2570007196	0
1192	5895	0.4570007196	0
1197	955	0.0570000972	0
1197	3423	0.2570002884	0
1197	5895	0.4570007196	0
1198	955	0.0570000972	0
1198	3423	0.2570002884	0
1198	5895	0.4570007196	0
1199	955	0.0570000972	0
1199	3423	0.2570002884	0
1199	5895	0.4570007196	0
1200	955	0.0570000972	0
1200	3423	0.2570002884	0
1200	5895	0.4570007196	0
1201	955	0.0570000972	0
1201	3423	0.2570002884	0
1201	5895	0.4570007196	0
1202	955	0.0570000972	0
1202	3423	0.2570002884	0
1202	5895	0.4570007196	0
1203	955	0.0570000972	0
1203	3423	0.2570002884	0
1203	5895	0.4570007196	0
1204	955	0.0570000972	16
1204	3423	0.2570002884	16
1204	5895	0.4570007196	16
1206	75	0.0000003096	65535
1208	958	0.0570000972	9.72e-08
1208	976	0.0570002884	9.72e-08
1208	3454	0.2570007196	3.372e-07
1208	3454	0.2570007196	3.372e-07
1208	3454	0.2570007196	3.372e-07
1208	3454	0.2570007196	3.372e-07
1208	3454	0.2570007196	3.372e-07
1208	3454	0.2570007196	3.372e-07
1208	3454	0.2570007196	3.372e-07
1208	3454	0.2570007196	3.372e-07
1208	3454	0.2570007196	3.372e-07
1208	3454	0.2570007196	3.372e-07
1208	3454	0.2570007196	3.372e-07
1208	3454	0.2570007196	3.372e-07
1208	3454	0.2570007196	3.372e-07
1208	3454	0.2570007196	3.372e-07
1208	3454	0.2570007196	3.372e-07
1208	3454	0.2570007196	3.372e-07
1209	43	0	0
1210	147	0.0000006304	3
1210	214	0.0000008564	1
1211	214	0.0000008564	2.26e-07
1212	147	0.0000006304	65535
1213	147	0.0000006304	8940
1214	147	0.0000006304	0.3725
1216	955	0.0570000972	2000
1216	974	0.0570002884	2001
1216	3437	0.2570007196	2002
1216	3437	0.2570007196	2003
1216	3437	0.2570007196	2004
1216	3437	0.2570007196	2005
1216	3437	0.2570007196	2006
1216	3437	0.2570007196	2007
1216	3437	0.2570007196	2008
1216	3437	0.2570007196	2009
1216	3437	0.2570007196	2010
1216	3437	0.2570007196	2011
1216	3437	0.2570007196	2012
1216	3437	0.2570007196	2013
1216	3437	0.2570007196	2014
1216	3437	0.2570007196	2015
1216	3437	0.2570007196	2016
1216	3437	0.2570007196	2017
1218	119	0.000000552	1
1218	133	0.000000596	2
1219	119	0.000000552	1
1219	133	0.000000596	2
1220	214	0.0000008564	1
1220	220	0.0000009004	2
1229	43	0	0
1237	300	0.0070000972	65533
1237	2741	0.2070002884	65535
1237	5299	0.4070007196	65535
1241	300	0.0070000972	2
1241	303	0.0070000972	2
1241	321	0.0070002884	2
1241	2741	0.2070002884	0
1241	2772	0.2070007196	32
1241	2773	0.2070007196	0
1241	2774	0.2070007196	0
1241	2775	0.2070007196	0
1241	2776	0.2070007196	0
1241	2777	0.2070007196	0
1241	2778	0.2070007196	0
1241	2779	0.2070007196	0
1241	2780	0.2070007196	0
1241	2781	0.2070007196	0
1241	2782	0.2070007196	0
1241	2783	0.2070007196	0
1241	2784	0.2070007196	0
1241	2785	0.2070007196	0
1241	2786	0.2070007196	0
1241	2787	0.2070007196	0
1241	5299	0.4070007196	0
1246	300	0.0070000972	0
1246	2741	0.2070002884	0
1246	5299	0.4070007196	0
1247	300	0.0070000972	0
1247	2741	0.2070002884	0
1247	5299	0.4070007196	0
1248	300	0.0070000972	0
1248	2741	0.2070002884	0
1248	5299	0.4070007196	0
1249	300	0.0070000972	0
1249	2741	0.2070002884	0
1249	5299	0.4070007196	0
1250	300	0.0070000972	0
1250	2741	0.2070002884	0
1250	5299	0.4070007196	0
1251	300	0.0070000972	0
1251	2741	0.2070002884	0
1251	5299	0.4070007196	0
1252	300	0.0070000972	0
1252	2741	0.2070002884	0
1252	5299	0.4070007196	0
1253	300	0.0070000972	16
1253	2741	0.2070002884	16
1253	5299	0.4070007196	16
1255	76	0.0000003096	65535
1257	303	0.0070000972	9.72e-08
1257	321	0.0070002884	9.72e-08
1257	2772	0.2070007196	3.372e-07
1257	2772	0.2070007196	3.372e-07
1257	2772	0.2070007196	3.372e-07
1257	2772	0.2070007196	3.372e-07
1257	2772	0.2070007196	3.372e-07
1257	2772	0.2070007196	3.372e-07
1257	2772	0.2070007196	3.372e-07
1257	2772	0.2070007196	3.372e-07
1257	2772	0.2070007196	3.372e-07
1257	2772	0.2070007196	3.372e-07
1257	2772	0.2070007196	3.372e-07
1257	2772	0.2070007196	3.372e-07
1257	2772	0.2070007196	3.372e-07
1257	2772	0.2070007196	3.372e-07
1257	2772	0.2070007196	3.372e-07
1257	2772	0.2070007196	3.372e-07
1258	44	0	0
1259	148	0.0000006304	3
1259	213	0.0000008564	1
1260	213	0.0000008564	2.26e-07
1261	148	0.0000006304	65535
1262	148	0.0000006304	8940
1263	148	0.0000006304	0.3725
1265	300	0.0070000972	2000
1265	319	0.0070002884	2001
1265	2755	0.2070007196	2002
1265	2755	0.2070007196	2003
1265	2755	0.2070007196	2004
1265	2755	0.2070007196	2005
1265	2755	0.2070007196	2006
1265	2755	0.2070007196	2007
1265	2755	0.2070007196	2008
1265	2755	0.2070007196	2009
1265	2755	0.2070007196	2010
1265	2755	0.2070007196	2011
1265	2755	0.2070007196	2012
1265	2755	0.2070007196	2013
1265	2755	0.2070007196	2014
1265	2755	0.2070007196	2015
1265	2755	0.2070007196	2016
1265	2755	0.2070007196	2017
1267	120	0.000000552	1
1267	134	0.000000596	2
1268	120	0.000000552	1
1268	134	0.000000596	2
1269	213	0.0000008564	1
1269	219	0.0000009004	2
1278	44	0	0
1307	61	0.0000001228	0
1308	89	0.000000458	3
1310	89	0.000000458	65535
1311	89	0.000000458	8940
1312	89	0.000000458	0.3725
1315	89	0.000000458	1
1323	967	0.0570001912	0
1323	3430	0.2570003824	0
1323	5902	0.4570008136	0
1324	967	0.0570001912	0
1324	3430	0.2570003824	0
1324	5902	0.4570008136	0
1325	967	0.0570001912	0
1325	3430	0.2570003824	0
1325	5902	0.4570008136	0
1327	61	0.0000001228	0
1335	89	0.000000458	3
1337	89	0.000000458	65535
1338	89	0.000000458	8940
1339	89	0.000000458	0.3725
1342	89	0.000000458	1
1350	967	0.0570001912	0
1350	3430	0.2570003824	0
1350	5902	0.4570008136	0
1351	967	0.0570001912	0
1351	3430	0.2570003824	0
1351	5902	0.4570008136	0
1352	967	0.0570001912	0
1352	3430	0.2570003824	0
1352	5902	0.4570008136	0
1354	61	0.0000001228	0
1362	89	0.000000458	3
1362	168	0.0000006744	1
1362	967	0.0570001912	1
1362	3430	0.2570003824	1
1362	5902	0.4570008136	1
1363	168	0.0000006744	2.164e-07
1363	967	0.0570001912	1.912e-07
1363	3430	0.2570003824	0.2000001912
1363	5902	0.4570008136	0.2000004312
1364	89	0.000000458	65535
1364	15403	1.2570003824	65535
1365	89	0.000000458	8940
1365	15403	1.2570003824	8940
1366	89	0.000000458	0.3725
1366	15403	1.2570003824	23.84
1367	935	0.057	2000
1367	967	0.0570001912	2001
1367	3430	0.2570003824	2002
1367	3430	0.2570003824	2003
1367	3430	0.2570003824	2004
1367	3430	0.2570003824	2005
1367	3430	0.2570003824	2006
1367	3430	0.2570003824	2007
1367	3430	0.2570003824	2008
1367	3430	0.2570003824	2009
1367	3430	0.2570003824	2010
1367	3430	0.2570003824	2011
1367	3430	0.2570003824	2012
1367	3430	0.2570003824	2013
1367	3430	0.2570003824	2014
1367	3430	0.2570003824	2015
1367	3430	0.2570003824	2016
1367	3430	0.2570003824	2017
1370	186	0.0000007624	1
1370	200	0.0000008064	2
1371	186	0.0000007624	1
1371	200	0.0000008064	2
1372	168	0.0000006744	1
1372	178	0.0000007184	2
1373	935	0.057	2
1373	967	0.0570001912	0
1373	967	0.0570001912	2
1373	3430	0.2570003824	0
1373	3430	0.2570003824	2
1373	3430	0.2570003824	4
1373	3430	0.2570003824	6
1373	3430	0.2570003824	8
1373	3430	0.2570003824	10
1373	3430	0.2570003824	12
1373	3430	0.2570003824	14
1373	3430	0.2570003824	16
1373	3430	0.2570003824	18
1373	3430	0.2570003824	20
1373	3430	0.2570003824	22
1373	3430	0.2570003824	24
1373	3430	0.2570003824	26
1373	3430	0.2570003824	28
1373	3430	0.2570003824	30
1373	3430	0.2570003824	32
1373	5902	0.4570008136	30
1373	5902	0.4570008136	28
1373	5902	0.4570008136	26
1373	5902	0.4570008136	24
1373	5902	0.4570008136	22
1373	5902	0.4570008136	20
1373	5902	0.4570008136	18
1373	5902	0.4570008136	16
1373	5902	0.4570008136	14
1373	5902	0.4570008136	12
1373	5902	0.4570008136	10
1373	5902	0.4570008136	8
1373	5902	0.4570008136	6
1373	5902	0.4570008136	4
1373	5902	0.4570008136	2
1373	5902	0.4570008136	0
1374	935	0.057	2
1374	967	0.0570001912	0
1374	967	0.0570001912	2
1374	3430	0.2570003824	0
1374	3430	0.2570003824	2
1374	3430	0.2570003824	4
1374	3430	0.2570003824	6
1374	3430	0.2570003824	8
1374	3430	0.2570003824	10
1374	3430	0.2570003824	12
1374	3430	0.2570003824	14
1374	3430	0.2570003824	16
1374	3430	0.2570003824	18
1374	3430	0.2570003824	20
1374	3430	0.2570003824	22
1374	3430	0.2570003824	24
1374	3430	0.2570003824	26
1374	3430	0.2570003824	28
1374	3430	0.2570003824	30
1374	3430	0.2570003824	32
1374	5902	0.4570008136	30
1374	5902	0.4570008136	28
1374	5902	0.4570008136	26
1374	5902	0.4570008136	24
1374	5902	0.4570008136	22
1374	5902	0.4570008136	20
1374	5902	0.4570008136	18
1374	5902	0.4570008136	16
1374	5902	0.4570008136	14
1374	5902	0.4570008136	12
1374	5902	0.4570008136	10
1374	5902	0.4570008136	8
1374	5902	0.4570008136	6
1374	5902	0.4570008136	4
1374	5902	0.4570008136	2
1374	5902	0.4570008136	0
1377	967	0.0570001912	0
1377	3430	0.2570003824	0
1377	5902	0.4570008136	0
1378	967	0.0570001912	0
1378	3430	0.2570003824	0
1378	5902	0.4570008136	0
1379	967	0.0570001912	0
1379	3430	0.2570003824	0
1379	5902	0.4570008136	0
1380	967	0.0570001912	0
1380	3430	0.2570003824	0
1380	5902	0.4570008136	0
1381	61	0.0000001228	0
1384	967	0.0570001912	2000
1384	3430	0.2570003824	2001
1384	5902	0.4570008136	2017
1386	967	0.0570001912	0
1386	3430	0.2570003824	0
1386	5902	0.4570008136	0
1387	967	0.0570001912	0
1387	3430	0.2570003824	0
1387	5902	0.4570008136	0
1410	62	0.0000001228	0
1411	90	0.000000458	3
1413	90	0.000000458	65535
1414	90	0.000000458	8940
1415	90	0.000000458	0.3725
1418	90	0.000000458	1
1426	312	0.0070001912	0
1426	2748	0.2070003824	0
1426	5306	0.4070008136	0
1427	312	0.0070001912	0
1427	2748	0.2070003824	0
1427	5306	0.4070008136	0
1428	312	0.0070001912	0
1428	2748	0.2070003824	0
1428	5306	0.4070008136	0
1430	62	0.0000001228	0
1438	90	0.000000458	3
1440	90	0.000000458	65535
1441	90	0.000000458	8940
1442	90	0.000000458	0.3725
1445	90	0.000000458	1
1453	312	0.0070001912	0
1453	2748	0.2070003824	0
1453	5306	0.4070008136	0
1454	312	0.0070001912	0
1454	2748	0.2070003824	0
1454	5306	0.4070008136	0
1455	312	0.0070001912	0
1455	2748	0.2070003824	0
1455	5306	0.4070008136	0
1457	62	0.0000001228	0
1465	90	0.000000458	3
1465	167	0.0000006744	1
1465	312	0.0070001912	1
1465	2748	0.2070003824	1
1465	5306	0.4070008136	1
1466	167	0.0000006744	2.164e-07
1466	312	0.0070001912	1.912e-07
1466	2748	0.2070003824	0.2000001912
1466	5306	0.4070008136	0.2000004312
1467	90	0.000000458	65535
1467	14802	1.2070003824	65535
1468	90	0.000000458	8940
1468	14802	1.2070003824	8940
1469	90	0.000000458	0.3725
1469	14802	1.2070003824	23.84
1470	285	0.007	2000
1470	312	0.0070001912	2001
1470	2748	0.2070003824	2002
1470	2748	0.2070003824	2003
1470	2748	0.2070003824	2004
1470	2748	0.2070003824	2005
1470	2748	0.2070003824	2006
1470	2748	0.2070003824	2007
1470	2748	0.2070003824	2008
1470	2748	0.2070003824	2009
1470	2748	0.2070003824	2010
1470	2748	0.2070003824	2011
1470	2748	0.2070003824	2012
1470	2748	0.2070003824	2013
1470	2748	0.2070003824	2014
1470	2748	0.2070003824	2015
1470	2748	0.2070003824	2016
1470	2748	0.2070003824	2017
1473	185	0.0000007624	1
1473	199	0.0000008064	2
1474	185	0.0000007624	1
1474	199	0.0000008064	2
1475	167	0.0000006744	1
1475	177	0.0000007184	2
1476	285	0.007	2
1476	312	0.0070001912	0
1476	312	0.0070001912	2
1476	2748	0.2070003824	0
1476	2748	0.2070003824	2
1476	2748	0.2070003824	4
1476	2748	0.2070003824	6
1476	2748	0.2070003824	8
1476	2748	0.2070003824	10
1476	2748	0.2070003824	12
1476	2748	0.2070003824	14
1476	2748	0.2070003824	16
1476	2748	0.2070003824	18
1476	2748	0.2070003824	20
1476	2748	0.2070003824	22
1476	2748	0.2070003824	24
1476	2748	0.2070003824	26
1476	2748	0.2070003824	28
1476	2748	0.2070003824	30
1476	2748	0.2070003824	32
1476	5306	0.4070008136	30
1476	5306	0.4070008136	28
1476	5306	0.4070008136	26
1476	5306	0.4070008136	24
1476	5306	0.4070008136	22
1476	5306	0.4070008136	20
1476	5306	0.4070008136	18
1476	5306	0.4070008136	16
1476	5306	0.4070008136	14
1476	5306	0.4070008136	12
1476	5306	0.4070008136	10
1476	5306	0.4070008136	8
1476	5306	0.4070008136	6
1476	5306	0.4070008136	4
1476	5306	0.4070008136	2
1476	5306	0.4070008136	0
1477	285	0.007	2
1477	312	0.0070001912	0
1477	312	0.0070001912	2
1477	2748	0.2070003824	0
1477	2748	0.2070003824	2
1477	2748	0.2070003824	4
1477	2748	0.2070003824	6
1477	2748	0.2070003824	8
1477	2748	0.2070003824	10
1477	2748	0.2070003824	12
1477	2748	0.2070003824	14
1477	2748	0.2070003824	16
1477	2748	0.2070003824	18
1477	2748	0.2070003824	20
1477	2748	0.2070003824	22
1477	2748	0.2070003824	24
1477	2748	0.2070003824	26
1477	2748	0.2070003824	28
1477	2748	0.2070003824	30
1477	2748	0.2070003824	32
1477	5306	0.4070008136	30
1477	5306	0.4070008136	28
1477	5306	0.4070008136	26
1477	5306	0.4070008136	24
1477	5306	0.4070008136	22
1477	5306	0.4070008136	20
1477	5306	0.4070008136	18
1477	5306	0.4070008136	16
1477	5306	0.4070008136	14
1477	5306	0.4070008136	12
1477	5306	0.4070008136	10
1477	5306	0.4070008136	8
1477	5306	0.4070008136	6
1477	5306	0.4070008136	4
1477	5306	0.4070008136	2
1477	5306	0.4070008136	0
1480	312	0.0070001912	0
1480	2748	0.2070003824	0
1480	5306	0.4070008136	0
1481	312	0.0070001912	0
1481	2748	0.2070003824	0
1481	5306	0.4070008136	0
1482	312	0.0070001912	0
1482	2748	0.2070003824	0
1482	5306	0.4070008136	0
1483	312	0.0070001912	0
1483	2748	0.2070003824	0
1483	5306	0.4070008136	0
1484	62	0.0000001228	0
1487	312	0.0070001912	2000
1487	2748	0.2070003824	2001
1487	5306	0.4070008136	2017
1489	312	0.0070001912	0
1489	2748	0.2070003824	0
1489	5306	0.4070008136	0
1490	312	0.0070001912	0
1490	2748	0.2070003824	0
1490	5306	0.4070008136	0
1492	147	0.0000006304	3
1494	147	0.0000006304	65535
1495	147	0.0000006304	8940
1496	147	0.0000006304	0.3725
1499	147	0.0000006304	1
1511	75	0.0000003096	0
1519	147	0.0000006304	3
1521	147	0.0000006304	65535
1522	147	0.0000006304	8940
1523	147	0.0000006304	0.3725
1526	147	0.0000006304	1
1538	75	0.0000003096	0
1546	148	0.0000006304	3
1548	148	0.0000006304	65535
1549	148	0.0000006304	8940
1550	148	0.0000006304	0.3725
1553	148	0.0000006304	1
1565	76	0.0000003096	0
1573	148	0.0000006304	3
1575	148	0.0000006304	65535
1576	148	0.0000006304	8940
1577	148	0.0000006304	0.3725
1580	148	0.0000006304	1
1592	76	0.0000003096	0
1602	967	0.0570001912	0
1602	3430	0.2570003824	0
1602	5902	0.4570008136	0
1603	935	0.057	1
1603	935	0.057	0
1603	936	0.057	1
1603	967	0.0570001912	0
1603	1039	0.063	1
1603	1040	0.063	2
1603	1102	0.069	3
1603	1103	0.069	4
1603	1165	0.075	5
1603	1166	0.075	6
1603	1228	0.081	7
1603	1229	0.081	8
1603	1291	0.087	9
1603	1292	0.087	10
1603	1354	0.093	11
1603	1355	0.093	12
1603	1434	0.099	13
1603	1435	0.099	14
1603	1518	0.105	15
1603	1519	0.105	16
1603	3430	0.2570003824	15
1603	3430	0.2570003824	14
1603	3430	0.2570003824	13
1603	3430	0.2570003824	12
1603	3430	0.2570003824	11
1603	3430	0.2570003824	10
1603	3430	0.2570003824	9
1603	3430	0.2570003824	8
1603	3430	0.2570003824	7
1603	3430	0.2570003824	6
1603	3430	0.2570003824	5
1603	3430	0.2570003824	4
1603	3430	0.2570003824	3
1603	3430	0.2570003824	2
1603	3430	0.2570003824	1
1603	3430	0.2570003824	0
1606	312	0.0070001912	0
1606	2748	0.2070003824	0
1606	5306	0.4070008136	0
1607	285	0.007	1
1607	285	0.007	0
1607	286	0.007	1
1607	312	0.0070001912	0
1607	373	0.013	1
1607	374	0.013	2
1607	430	0.019	3
1607	431	0.019	4
1607	487	0.025	5
1607	488	0.025	6
1607	553	0.031	7
1607	554	0.031	8
1607	643	0.037	9
1607	644	0.037	10
1607	729	0.043	11
1607	730	0.043	12
1607	814	0.049	13
1607	815	0.049	14
1607	900	0.055	15
1607	901	0.055	16
1607	2748	0.2070003824	15
1607	2748	0.2070003824	14
1607	2748	0.2070003824	13
1607	2748	0.2070003824	12
1607	2748	0.2070003824	11
1607	2748	0.2070003824	10
1607	2748	0.2070003824	9
1607	2748	0.2070003824	8
1607	2748	0.2070003824	7
1607	2748	0.2070003824	6
1607	2748	0.2070003824	5
1607	2748	0.2070003824	4
1607	2748	0.2070003824	3
1607	2748	0.2070003824	2
1607	2748	0.2070003824	1
1607	2748	0.2070003824	0
1621	528	0.029794597295	7504
1621	36418	3.029794597295	7504
1622	528	0.029794597295	7504
1622	36418	3.029794597295	7504
1624	528	0.029794597295	0
1624	36418	3.029794597295	0
1635	528	0.029794597295	0
1635	36418	3.029794597295	0
1645	579	0.032546852513	7504
1645	36471	3.032546852513	7504
1646	579	0.032546852513	7504
1646	36471	3.032546852513	7504
1648	579	0.032546852513	0
1648	36471	3.032546852513	0
1659	579	0.032546852513	0
1659	36471	3.032546852513	0
1669	1371	0.094045599147	7504
1670	1371	0.094045599147	7504
1672	1371	0.094045599147	0
1683	1371	0.094045599147	0
