version 2
run CAIN-0-20200501-17:49:39-20960
attr configname CAIN
attr datetime 20200501-17:49:39
attr dist 200
attr experiment CAIN
attr extAllocType "\"FULL_ALLOC\""
attr inifile omnetpp.ini
attr iterationvars "$numUe=3, $dist=200, $extAllocType=\"FULL_ALLOC\""
attr iterationvars2 "$numUe=3, $dist=200, $extAllocType=\"FULL_ALLOC\", $repetition=0"
attr measurement "$numUe=3, $dist=200, $extAllocType=\"FULL_ALLOC\""
attr network lte.simulations.networks.CAIN
attr numUe 3
attr processid 20960
attr repetition 0
attr replication #0
attr resultdir results
attr runnumber 0
attr seedset 0
param **.**.amcMode "\"AUTO\""
param **.amcMode "\"D2D\""
param **.cainNetwork true
param **.channelControl.alpha 1.0
param **.channelControl.carrierFrequency 2100e+6Hz
param **.channelControl.pMax 10W
param **.d2dCqi 7
param **.deployer.numRbDl 50
param **.deployer.numRbUl 50
param **.distThresh ${dist=200}
param **.fbDelay 1
param **.feedbackComputation "xmldoc(\"config_channel.xml\")"
param **.mobility.constraintAreaMaxX 1000m
param **.mobility.constraintAreaMaxY 1000m
param **.mobility.constraintAreaMaxZ 0m
param **.mobility.constraintAreaMinX 0m
param **.mobility.constraintAreaMinY 0m
param **.mobility.constraintAreaMinZ 0m
param **.nic.phy.channelModel "xmldoc(\"config_channel.xml\")"
param **.numBands 50
param **.qtdThresh 3
param **.rbAllocationType "\"localized\""
param **.routingRecorder.enabled false
param **.tcpApp[*].tClose -1s
param **.ueD2DTx[*].mobility.changeAngleBy "normal(0deg, 30deg)"
param **.ueD2DTx[*].mobility.changeInterval "normal(5s, 0.1s)"
param **.ueD2DTx[*].mobility.speed "normal(2mps, 0.01mps)"
param **.ueD2DTx[*].mobilityType "\"RandomWPMobility\""
param **.usePreconfiguredTxParams false
param *.eNodeB*.numX2Apps 1
param *.eNodeB*.x2App[*].server.localPort "5000 + ancestorIndex(1)"
param *.eNodeB.d2dCapable false
param *.eNodeB.mobility.initFromDisplayString false
param *.eNodeB.mobility.initialX 300m
param *.eNodeB.mobility.initialY 300m
param *.eNodeB.nic.phy.enableD2DCqiReporting true
param *.eNodeB.txPower 19952.62315mw
param *.eNodeB.x2App[0].client.connectAddress "\"eNodeB1%x2ppp0\""
param *.eNodeB1.d2dCapable true
param *.eNodeB1.mobility.initFromDisplayString false
param *.eNodeB1.mobility.initialX 700m
param *.eNodeB1.mobility.initialY 300m
param *.eNodeB1.nic.phy.enableD2DCqiReporting true
param *.eNodeB1.txPower 19952.62315mw
param *.eNodeB1.x2App[0].client.connectAddress "\"eNodeB%x2ppp0\""
param *.extCell[*].bandAllocationType "${extAllocType=\"FULL_ALLOC\",\"RANDOM_ALLOC\",\"CONTIGUOUS_ALLOC\"}"
param *.extCell[*].bandUtilization 0.5
param *.extCell[*].txDirection "\"ANISOTROPIC\""
param *.extCell[*].txPower 20
param *.extCell[0].position_x 100m
param *.extCell[0].position_y 600m
param *.extCell[0].txAngle 315
param *.extCell[1].position_x 600m
param *.extCell[1].position_y 600m
param *.extCell[1].txAngle 225
param *.numExtCells 2
param *.numUeCell 0
param *.numUeD2DRx 1
param *.numUeD2DTx 1
param *.ue*.macCellId 1
param *.ue*.masterId 1
param *.ue*.mobility.initFromDisplayString false
param *.ue*[0].macCellId 1
param *.ue*[0].masterId 1
param *.ue*[0].mobility.initFromDisplayString false
param *.ueD2D*.numTcpApps 1
param *.ueD2D*[*].d2dCapable true
param *.ueD2D*[0].d2dCapable false
param *.ueD2D*[0].numTcpApps 1
param *.ueD2DRx[0].mobility.initialX 310m
param *.ueD2DRx[0].mobility.initialY 350m
param *.ueD2DRx[0].tcpApp[*].localPort 1000
param *.ueD2DRx[0].tcpApp[*].typename "\"TCPSinkApp\""
param *.ueD2DTx*.tcpApp[*].connectAddress "\"ueD2DTx[0]\""
param *.ueD2DTx*.tcpApp[*].localAddress "\"ueD2DTx\""
param *.ueD2DTx*.tcpApp[*].localPort 1000
param *.ueD2DTx*.tcpApp[*].sendBytes 1GiB
param *.ueD2DTx*.tcpApp[*].typename "\"TCPSessionApp\""
param *.ueD2DTx*.tcpApp[0].active true
param *.ueD2DTx*.tcpApp[0].connectPort 1000
param *.ueD2DTx*.tcpApp[0].tOpen uniform(0.010s,0.1s)
param *.ueD2DTx*.tcpApp[0].tSend uniform(0.15s,0.5s)
param *.ueD2DTx[0].mobility.initialX 290m
param *.ueD2DTx[0].mobility.initialY 350m
param *.ueD2DTx[0].nic.d2dPeerAddresses "\"ueD2DTx[1]\""
param *.ueD2DTx[0].tcpApp[*].localPort 1000
param *.ueD2DTx[0].tcpApp[*].sendBytes 1GiB
param *.ueD2DTx[0].tcpApp[*].typename "\"TCPSessionApp\""
param *.ueD2DTx[0].tcpApp[0].active true
param *.ueD2DTx[0].tcpApp[0].connectAddress "\"ueD2DRx[0]\""
param *.ueD2DTx[0].tcpApp[0].connectPort 1000
param *.ueD2DTx[0].tcpApp[0].localAddress "\"ueD2DTx[0]\""
param *.ueD2DTx[0].tcpApp[0].tOpen uniform(0.010s,0.1s)
param *.ueD2DTx[0].tcpApp[0].tSend uniform(0.15s,0.5s)
param *.ueD2DTx[1].mobility.initialX 690m
param *.ueD2DTx[1].mobility.initialY 250m
param *.ueD2DTx[1].nic.d2dPeerAddresses "\"ueD2DTx[0]\""

vector 1700  CAIN.server.ppp[0].queue  queueLength:vector  ETV
attr interpolationmode  sample-hold
attr title  "queue length, vector"
vector 1701  CAIN.server.ppp[0].ppp  txState:vector  ETV
attr interpolationmode  sample-hold
attr title  "tx state, vector"
vector 1716  CAIN.router.ppp[0].queue  queueLength:vector  ETV
attr interpolationmode  sample-hold
attr title  "queue length, vector"
vector 1717  CAIN.router.ppp[0].ppp  txState:vector  ETV
attr interpolationmode  sample-hold
attr title  "tx state, vector"
vector 1727  CAIN.router.ppp[1].queue  queueLength:vector  ETV
attr interpolationmode  sample-hold
attr title  "queue length, vector"
vector 1728  CAIN.router.ppp[1].ppp  txState:vector  ETV
attr interpolationmode  sample-hold
attr title  "tx state, vector"
vector 1748  CAIN.pgw.ppp[0].queue  queueLength:vector  ETV
attr interpolationmode  sample-hold
attr title  "queue length, vector"
vector 1749  CAIN.pgw.ppp[0].ppp  txState:vector  ETV
attr interpolationmode  sample-hold
attr title  "tx state, vector"
vector 1759  CAIN.pgw.ppp[1].queue  queueLength:vector  ETV
attr interpolationmode  sample-hold
attr title  "queue length, vector"
vector 1760  CAIN.pgw.ppp[1].ppp  txState:vector  ETV
attr interpolationmode  sample-hold
attr title  "tx state, vector"
vector 1770  CAIN.pgw.pppInterface.queue  queueLength:vector  ETV
attr interpolationmode  sample-hold
attr title  "queue length, vector"
vector 1771  CAIN.pgw.pppInterface.ppp  txState:vector  ETV
attr interpolationmode  sample-hold
attr title  "tx state, vector"
vector 1812  CAIN.eNodeB.pppIf.queue  queueLength:vector  ETV
attr interpolationmode  sample-hold
attr title  "queue length, vector"
vector 1813  CAIN.eNodeB.pppIf.ppp  txState:vector  ETV
attr interpolationmode  sample-hold
attr title  "tx state, vector"
vector 1823  CAIN.eNodeB.x2ppp[0].queue  queueLength:vector  ETV
attr interpolationmode  sample-hold
attr title  "queue length, vector"
vector 1824  CAIN.eNodeB.x2ppp[0].ppp  txState:vector  ETV
attr interpolationmode  sample-hold
attr title  "tx state, vector"
vector 1870  CAIN.eNodeB1.pppIf.queue  queueLength:vector  ETV
attr interpolationmode  sample-hold
attr title  "queue length, vector"
vector 1871  CAIN.eNodeB1.pppIf.ppp  txState:vector  ETV
attr interpolationmode  sample-hold
attr title  "tx state, vector"
vector 1881  CAIN.eNodeB1.x2ppp[0].queue  queueLength:vector  ETV
attr interpolationmode  sample-hold
attr title  "queue length, vector"
vector 1882  CAIN.eNodeB1.x2ppp[0].ppp  txState:vector  ETV
attr interpolationmode  sample-hold
attr title  "tx state, vector"
vector 1923  CAIN.ueD2DTx[0].nic.phy  servingCell:vector  ETV
attr source  servingCell
attr title  "ID of the serving eNodeB for the UE, vector"
attr unit  ""
vector 1955  CAIN.ueD2DTx[1].nic.phy  servingCell:vector  ETV
attr source  servingCell
attr title  "ID of the serving eNodeB for the UE, vector"
attr unit  ""
vector 1987  CAIN.ueD2DTx[2].nic.phy  servingCell:vector  ETV
attr source  servingCell
attr title  "ID of the serving eNodeB for the UE, vector"
attr unit  ""
vector 2011  CAIN.eNodeB.sctp  "Throughput of Association 15"  ETV
vector 2033  CAIN.eNodeB1.sctp  "Throughput of Association 16"  ETV
vector 2055  CAIN.eNodeB.sctp  "Throughput of Association 13"  ETV
vector 2075  CAIN.eNodeB.sctp  "Fast Recovery State 13:10.0.5.2"  ETV
vector 2104  CAIN.eNodeB1.sctp  "Throughput of Association 14"  ETV
vector 2124  CAIN.eNodeB1.sctp  "Fast Recovery State 14:10.0.5.1"  ETV
vector 1820  CAIN.eNodeB.x2ppp[0].queue  rcvdPk:vector(packetBytes)  ETV
attr interpolationmode  none
attr title  "received packets, vector(packetBytes)"
vector 1822  CAIN.eNodeB.x2ppp[0].queue  queueingTime:vector  ETV
attr interpolationmode  none
attr title  "queueing time, vector"
vector 1878  CAIN.eNodeB1.x2ppp[0].queue  rcvdPk:vector(packetBytes)  ETV
attr interpolationmode  none
attr title  "received packets, vector(packetBytes)"
vector 1880  CAIN.eNodeB1.x2ppp[0].queue  queueingTime:vector  ETV
attr interpolationmode  none
attr title  "queueing time, vector"
vector 1829  CAIN.eNodeB.x2ppp[0].ppp  rcvdPkFromHL:vector(packetBytes)  ETV
attr interpolationmode  none
attr source  packetReceivedFromUpper
attr title  "packets received from higher layer, vector(packetBytes)"
vector 1825  CAIN.eNodeB.x2ppp[0].ppp  txPk:vector(packetBytes)  ETV
attr interpolationmode  none
attr source  packetSentToLower
attr title  "packets transmitted, vector(packetBytes)"
vector 1887  CAIN.eNodeB1.x2ppp[0].ppp  rcvdPkFromHL:vector(packetBytes)  ETV
attr interpolationmode  none
attr source  packetReceivedFromUpper
attr title  "packets received from higher layer, vector(packetBytes)"
vector 1883  CAIN.eNodeB1.x2ppp[0].ppp  txPk:vector(packetBytes)  ETV
attr interpolationmode  none
attr source  packetSentToLower
attr title  "packets transmitted, vector(packetBytes)"
vector 1884  CAIN.eNodeB1.x2ppp[0].ppp  rxPkOk:vector(packetBytes)  ETV
attr interpolationmode  none
attr source  rxPkOk
attr title  "packets received OK, vector(packetBytes)"
vector 1888  CAIN.eNodeB1.x2ppp[0].ppp  passedUpPk:vector(packetBytes)  ETV
attr interpolationmode  none
attr source  packetSentToUpper
attr title  "packets passed to higher layer, vector(packetBytes)"
vector 1826  CAIN.eNodeB.x2ppp[0].ppp  rxPkOk:vector(packetBytes)  ETV
attr interpolationmode  none
attr source  rxPkOk
attr title  "packets received OK, vector(packetBytes)"
vector 1830  CAIN.eNodeB.x2ppp[0].ppp  passedUpPk:vector(packetBytes)  ETV
attr interpolationmode  none
attr source  packetSentToUpper
attr title  "packets passed to higher layer, vector(packetBytes)"
vector 2153  CAIN.eNodeB1.sctp  "Throughput of Association 16"  ETV
vector 2030  CAIN.eNodeB1.sctp  "Peer Rwnd 16"  ETV
vector 2173  CAIN.eNodeB1.sctp  "Fast Recovery State 17:10.0.4.1"  ETV
vector 2200  CAIN.eNodeB1.sctp  "Fast Recovery State 17:10.0.2.2"  ETV
vector 2227  CAIN.eNodeB1.sctp  "Fast Recovery State 17:10.0.5.1"  ETV
vector 2256  CAIN.eNodeB.sctp  "Throughput of Association 15"  ETV
vector 2008  CAIN.eNodeB.sctp  "Peer Rwnd 15"  ETV
vector 2276  CAIN.eNodeB.sctp  "Fast Recovery State 18:10.0.4.2"  ETV
vector 2303  CAIN.eNodeB.sctp  "Fast Recovery State 18:10.0.3.2"  ETV
vector 2330  CAIN.eNodeB.sctp  "Fast Recovery State 18:10.0.5.2"  ETV
vector 2052  CAIN.eNodeB.sctp  "Peer Rwnd 13"  ETV
vector 2357  CAIN.eNodeB.sctp  "Fast Recovery State 13:10.0.4.2"  ETV
vector 2384  CAIN.eNodeB.sctp  "Fast Recovery State 13:10.0.3.2"  ETV
vector 2101  CAIN.eNodeB1.sctp  "Peer Rwnd 14"  ETV
vector 2411  CAIN.eNodeB1.sctp  "Fast Recovery State 14:10.0.4.1"  ETV
vector 2438  CAIN.eNodeB1.sctp  "Fast Recovery State 14:10.0.2.2"  ETV
vector 2183  CAIN.eNodeB1.sctp  "Slow Start Threshold 17:10.0.2.2"  ETV
vector 2184  CAIN.eNodeB1.sctp  "Congestion Window 17:10.0.2.2"  ETV
vector 2185  CAIN.eNodeB1.sctp  "Bandwidth 17:10.0.2.2"  ETV
vector 2188  CAIN.eNodeB1.sctp  "HB Sent 17:10.0.2.2"  ETV
vector 2181  CAIN.eNodeB1.sctp  "RTO 17:10.0.2.2"  ETV
vector 2156  CAIN.eNodeB1.sctp  "Slow Start Threshold 17:10.0.4.1"  ETV
vector 2157  CAIN.eNodeB1.sctp  "Congestion Window 17:10.0.4.1"  ETV
vector 2158  CAIN.eNodeB1.sctp  "Bandwidth 17:10.0.4.1"  ETV
vector 2161  CAIN.eNodeB1.sctp  "HB Sent 17:10.0.4.1"  ETV
vector 2154  CAIN.eNodeB1.sctp  "RTO 17:10.0.4.1"  ETV
vector 2210  CAIN.eNodeB1.sctp  "Slow Start Threshold 17:10.0.5.1"  ETV
vector 2211  CAIN.eNodeB1.sctp  "Congestion Window 17:10.0.5.1"  ETV
vector 2212  CAIN.eNodeB1.sctp  "Bandwidth 17:10.0.5.1"  ETV
vector 2208  CAIN.eNodeB1.sctp  "RTO 17:10.0.5.1"  ETV
vector 2286  CAIN.eNodeB.sctp  "Slow Start Threshold 18:10.0.3.2"  ETV
vector 2287  CAIN.eNodeB.sctp  "Congestion Window 18:10.0.3.2"  ETV
vector 2288  CAIN.eNodeB.sctp  "Bandwidth 18:10.0.3.2"  ETV
vector 2291  CAIN.eNodeB.sctp  "HB Sent 18:10.0.3.2"  ETV
vector 2284  CAIN.eNodeB.sctp  "RTO 18:10.0.3.2"  ETV
vector 2259  CAIN.eNodeB.sctp  "Slow Start Threshold 18:10.0.4.2"  ETV
vector 2260  CAIN.eNodeB.sctp  "Congestion Window 18:10.0.4.2"  ETV
vector 2261  CAIN.eNodeB.sctp  "Bandwidth 18:10.0.4.2"  ETV
vector 2264  CAIN.eNodeB.sctp  "HB Sent 18:10.0.4.2"  ETV
vector 2257  CAIN.eNodeB.sctp  "RTO 18:10.0.4.2"  ETV
vector 2313  CAIN.eNodeB.sctp  "Slow Start Threshold 18:10.0.5.2"  ETV
vector 2314  CAIN.eNodeB.sctp  "Congestion Window 18:10.0.5.2"  ETV
vector 2315  CAIN.eNodeB.sctp  "Bandwidth 18:10.0.5.2"  ETV
vector 2311  CAIN.eNodeB.sctp  "RTO 18:10.0.5.2"  ETV
vector 2064  CAIN.eNodeB.sctp  "HB ACK Sent 13:10.0.5.2"  ETV
vector 2065  CAIN.eNodeB.sctp  "HB Received 13:10.0.5.2"  ETV
vector 2113  CAIN.eNodeB1.sctp  "HB ACK Sent 14:10.0.5.1"  ETV
vector 2114  CAIN.eNodeB1.sctp  "HB Received 14:10.0.5.1"  ETV
vector 2367  CAIN.eNodeB.sctp  "Slow Start Threshold 13:10.0.3.2"  ETV
vector 2368  CAIN.eNodeB.sctp  "Congestion Window 13:10.0.3.2"  ETV
vector 2369  CAIN.eNodeB.sctp  "Bandwidth 13:10.0.3.2"  ETV
vector 2372  CAIN.eNodeB.sctp  "HB Sent 13:10.0.3.2"  ETV
vector 2365  CAIN.eNodeB.sctp  "RTO 13:10.0.3.2"  ETV
vector 2340  CAIN.eNodeB.sctp  "Slow Start Threshold 13:10.0.4.2"  ETV
vector 2341  CAIN.eNodeB.sctp  "Congestion Window 13:10.0.4.2"  ETV
vector 2342  CAIN.eNodeB.sctp  "Bandwidth 13:10.0.4.2"  ETV
vector 2345  CAIN.eNodeB.sctp  "HB Sent 13:10.0.4.2"  ETV
vector 2338  CAIN.eNodeB.sctp  "RTO 13:10.0.4.2"  ETV
vector 2058  CAIN.eNodeB.sctp  "Slow Start Threshold 13:10.0.5.2"  ETV
vector 2059  CAIN.eNodeB.sctp  "Congestion Window 13:10.0.5.2"  ETV
vector 2060  CAIN.eNodeB.sctp  "Bandwidth 13:10.0.5.2"  ETV
vector 2056  CAIN.eNodeB.sctp  "RTO 13:10.0.5.2"  ETV
vector 2421  CAIN.eNodeB1.sctp  "Slow Start Threshold 14:10.0.2.2"  ETV
vector 2422  CAIN.eNodeB1.sctp  "Congestion Window 14:10.0.2.2"  ETV
vector 2423  CAIN.eNodeB1.sctp  "Bandwidth 14:10.0.2.2"  ETV
vector 2426  CAIN.eNodeB1.sctp  "HB Sent 14:10.0.2.2"  ETV
vector 2419  CAIN.eNodeB1.sctp  "RTO 14:10.0.2.2"  ETV
vector 2394  CAIN.eNodeB1.sctp  "Slow Start Threshold 14:10.0.4.1"  ETV
vector 2395  CAIN.eNodeB1.sctp  "Congestion Window 14:10.0.4.1"  ETV
vector 2396  CAIN.eNodeB1.sctp  "Bandwidth 14:10.0.4.1"  ETV
vector 2399  CAIN.eNodeB1.sctp  "HB Sent 14:10.0.4.1"  ETV
vector 2392  CAIN.eNodeB1.sctp  "RTO 14:10.0.4.1"  ETV
vector 2107  CAIN.eNodeB1.sctp  "Slow Start Threshold 14:10.0.5.1"  ETV
vector 2108  CAIN.eNodeB1.sctp  "Congestion Window 14:10.0.5.1"  ETV
vector 2109  CAIN.eNodeB1.sctp  "Bandwidth 14:10.0.5.1"  ETV
vector 2105  CAIN.eNodeB1.sctp  "RTO 14:10.0.5.1"  ETV
vector 2321  CAIN.eNodeB.sctp  "HB ACK Received 18:10.0.5.2"  ETV
vector 2312  CAIN.eNodeB.sctp  "RTT 18:10.0.5.2"  ETV
vector 2218  CAIN.eNodeB1.sctp  "HB ACK Received 17:10.0.5.1"  ETV
vector 2209  CAIN.eNodeB1.sctp  "RTT 17:10.0.5.1"  ETV
vector 2319  CAIN.eNodeB.sctp  "HB ACK Sent 18:10.0.5.2"  ETV
vector 2320  CAIN.eNodeB.sctp  "HB Received 18:10.0.5.2"  ETV
vector 2216  CAIN.eNodeB1.sctp  "HB ACK Sent 17:10.0.5.1"  ETV
vector 2217  CAIN.eNodeB1.sctp  "HB Received 17:10.0.5.1"  ETV
vector 2115  CAIN.eNodeB1.sctp  "HB ACK Received 14:10.0.5.1"  ETV
vector 2106  CAIN.eNodeB1.sctp  "RTT 14:10.0.5.1"  ETV
vector 2066  CAIN.eNodeB.sctp  "HB ACK Received 13:10.0.5.2"  ETV
vector 2057  CAIN.eNodeB.sctp  "RTT 13:10.0.5.2"  ETV
vector 1788  CAIN.eNodeB.nic.mac  receivedPacketFromLowerLayer:vector(packetBytes)  ETV
attr interpolationmode  none
attr source  receivedPacketFromLowerLayer
vector 2453  CAIN.eNodeB.sctp  "SendQueue of Association 18"  ETV
vector 2316  CAIN.eNodeB.sctp  "TSN Sent 18:10.0.5.2"  ETV
vector 2323  CAIN.eNodeB.sctp  "Outstanding Bytes 18:10.0.5.2"  ETV
vector 1996  CAIN.eNodeB.sctp  "Outstanding Bytes 15:Total"  ETV
vector 2322  CAIN.eNodeB.sctp  "Queued Sent Bytes 18:10.0.5.2"  ETV
vector 1995  CAIN.eNodeB.sctp  "Queued Sent Bytes 15:Total"  ETV
vector 2111  CAIN.eNodeB1.sctp  "TSN Received 14:10.0.5.1"  ETV
vector 2087  CAIN.eNodeB1.sctp  "Queued Received Bytes 14:Total"  ETV
vector 2083  CAIN.eNodeB1.sctp  "Advertised Receiver Window 14"  ETV
vector 2092  CAIN.eNodeB1.sctp  "Number of Total Gap Blocks Stored 14"  ETV
vector 2093  CAIN.eNodeB1.sctp  "Number of Revokable Gap Blocks Stored 14"  ETV
vector 2094  CAIN.eNodeB1.sctp  "Number of Non-Revokable Gap Blocks Stored 14"  ETV
vector 2095  CAIN.eNodeB1.sctp  "Number of Duplicate TSNs Stored 14"  ETV
vector 2099  CAIN.eNodeB1.sctp  "Length of SACK Sent 14"  ETV
vector 2096  CAIN.eNodeB1.sctp  "Number of Revokable Gap Blocks Sent 14"  ETV
vector 2097  CAIN.eNodeB1.sctp  "Number of Non-Revokable Gap Blocks Sent 14"  ETV
vector 2098  CAIN.eNodeB1.sctp  "Number of Duplicate TSNs Sent 14"  ETV
vector 2103  CAIN.eNodeB1.sctp  "End to End Delay of Association 14"  ETV
vector 1891  CAIN.eNodeB1.x2App[0].client  rcvdPk:vector(packetBytes)  ETV
attr interpolationmode  none
attr source  rcvdPk
attr title  "packets received, vector(packetBytes)"
vector 2452  CAIN.eNodeB.sctp  "Number of Gap Blocks in Last SACK of Association 18"  ETV
vector 1997  CAIN.eNodeB.sctp  "Number of Revokable Gap Blocks in SACK 15"  ETV
vector 1998  CAIN.eNodeB.sctp  "Number of Non-Revokable Gap Blocks in SACK 15"  ETV
vector 2333  CAIN.eNodeB.sctp  "TSN Acked CumAck 18:10.0.5.2"  ETV
vector 2299  CAIN.eNodeB.sctp  "Number of Gap Acked Chunks in Last SACK 18:10.0.3.2"  ETV
vector 2300  CAIN.eNodeB.sctp  "Number of Non-Revokable Gap Acked Chunks in Last SACK 18:10.0.3.2"  ETV
vector 2301  CAIN.eNodeB.sctp  "Number of Gap Missed Chunks in Last SACK 18:10.0.3.2"  ETV
vector 2272  CAIN.eNodeB.sctp  "Number of Gap Acked Chunks in Last SACK 18:10.0.4.2"  ETV
vector 2273  CAIN.eNodeB.sctp  "Number of Non-Revokable Gap Acked Chunks in Last SACK 18:10.0.4.2"  ETV
vector 2274  CAIN.eNodeB.sctp  "Number of Gap Missed Chunks in Last SACK 18:10.0.4.2"  ETV
vector 2326  CAIN.eNodeB.sctp  "Number of Gap Acked Chunks in Last SACK 18:10.0.5.2"  ETV
vector 2327  CAIN.eNodeB.sctp  "Number of Non-Revokable Gap Acked Chunks in Last SACK 18:10.0.5.2"  ETV
vector 2328  CAIN.eNodeB.sctp  "Number of Gap Missed Chunks in Last SACK 18:10.0.5.2"  ETV
vector 2007  CAIN.eNodeB.sctp  "Arwnd in Last SACK 15"  ETV
vector 2335  CAIN.eNodeB.sctp  "TSN PseudoCumAck 18:10.0.5.2"  ETV
vector 2336  CAIN.eNodeB.sctp  "TSN RTXPseudoCumAck 18:10.0.5.2"  ETV
vector 2329  CAIN.eNodeB.sctp  "Partial Bytes Acked 18:10.0.5.2"  ETV
vector 2481  CAIN.ueD2DTx[2].tcp  tcpRcvQueueBytes  ETV
vector 2468  CAIN.ueD2DTx[2].tcp  "advertised window"  ETV
vector 2467  CAIN.ueD2DTx[2].tcp  "receive window"  ETV
vector 2470  CAIN.ueD2DTx[2].tcp  "sent ack"  ETV
vector 1961  CAIN.ueD2DTx[2].nic.pdcpRrc  receivedPacketFromUpperLayer:vector(packetBytes)  ETV
attr interpolationmode  none
attr source  receivedPacketFromUpperLayer
vector 1964  CAIN.ueD2DTx[2].nic.pdcpRrc  sentPacketToLowerLayer:vector(packetBytes)  ETV
attr interpolationmode  none
attr source  sentPacketToLowerLayer
vector 1965  CAIN.ueD2DTx[2].nic.mac  receivedPacketFromUpperLayer:vector(packetBytes)  ETV
attr interpolationmode  none
attr source  receivedPacketFromUpperLayer
vector 1975  CAIN.ueD2DTx[2].nic.mac  CainHopMessageSent:vector  ETV
attr interpolationmode  none
attr title  "# of Sent CAIN hop message, vector"
vector 1968  CAIN.ueD2DTx[2].nic.mac  sentPacketToLowerLayer:vector(packetBytes)  ETV
attr interpolationmode  none
attr source  sentPacketToLowerLayer
vector 1934  CAIN.ueD2DTx[1].nic.mac  receivedPacketFromLowerLayer:vector(packetBytes)  ETV
attr interpolationmode  none
attr source  receivedPacketFromLowerLayer
vector 1936  CAIN.ueD2DTx[1].nic.mac  sentPacketToLowerLayer:vector(packetBytes)  ETV
attr interpolationmode  none
attr source  sentPacketToLowerLayer
vector 1902  CAIN.ueD2DTx[0].nic.mac  receivedPacketFromLowerLayer:vector(packetBytes)  ETV
attr interpolationmode  none
attr source  receivedPacketFromLowerLayer
vector 1904  CAIN.ueD2DTx[0].nic.mac  sentPacketToLowerLayer:vector(packetBytes)  ETV
attr interpolationmode  none
attr source  sentPacketToLowerLayer
vector 2505  CAIN.ueD2DTx[1].tcp  tcpRcvQueueBytes  ETV
vector 2492  CAIN.ueD2DTx[1].tcp  "advertised window"  ETV
vector 2491  CAIN.ueD2DTx[1].tcp  "receive window"  ETV
vector 2494  CAIN.ueD2DTx[1].tcp  "sent ack"  ETV
vector 1929  CAIN.ueD2DTx[1].nic.pdcpRrc  receivedPacketFromUpperLayer:vector(packetBytes)  ETV
attr interpolationmode  none
attr source  receivedPacketFromUpperLayer
vector 1932  CAIN.ueD2DTx[1].nic.pdcpRrc  sentPacketToLowerLayer:vector(packetBytes)  ETV
attr interpolationmode  none
attr source  sentPacketToLowerLayer
vector 1933  CAIN.ueD2DTx[1].nic.mac  receivedPacketFromUpperLayer:vector(packetBytes)  ETV
attr interpolationmode  none
attr source  receivedPacketFromUpperLayer
vector 1943  CAIN.ueD2DTx[1].nic.mac  CainHopMessageSent:vector  ETV
attr interpolationmode  none
attr title  "# of Sent CAIN hop message, vector"
vector 1803  CAIN.eNodeB.nic.mac  racpkt:vector  ETV
attr interpolationmode  none
attr title  "eNB received racpkt message, vector"
vector 1804  CAIN.eNodeB.nic.mac  racDistanceSignal:vector  ETV
attr interpolationmode  none
attr title  "Rac distance to enb, vector"
vector 1805  CAIN.eNodeB.nic.mac  racServedDevsSignal:vector  ETV
attr interpolationmode  none
attr title  "# of devices served on rac arriavall, vector"
vector 1798  CAIN.eNodeB.nic.mac  DistanceSignal:vector  ETV
attr interpolationmode  none
attr title  "Distance to enb, vector"
vector 1793  CAIN.eNodeB.nic.mac  CainHopMessage:vector  ETV
attr interpolationmode  none
attr title  "eNB received CAIN hop message, vector"
vector 1790  CAIN.eNodeB.nic.mac  sentPacketToLowerLayer:vector(packetBytes)  ETV
attr interpolationmode  none
attr source  sentPacketToLowerLayer
vector 1966  CAIN.ueD2DTx[2].nic.mac  receivedPacketFromLowerLayer:vector(packetBytes)  ETV
attr interpolationmode  none
attr source  receivedPacketFromLowerLayer
vector 1909  CAIN.ueD2DTx[0].nic.mac  DropedHopMessage:vector  ETV
attr interpolationmode  none
attr title  "Droped Hop CAIN message due to RB not available, vector"
vector 2449  CAIN.eNodeB1.sctp  "SendQueue of Association 17"  ETV
vector 2213  CAIN.eNodeB1.sctp  "TSN Sent 17:10.0.5.1"  ETV
vector 2220  CAIN.eNodeB1.sctp  "Outstanding Bytes 17:10.0.5.1"  ETV
vector 2018  CAIN.eNodeB1.sctp  "Outstanding Bytes 16:Total"  ETV
vector 2219  CAIN.eNodeB1.sctp  "Queued Sent Bytes 17:10.0.5.1"  ETV
vector 2017  CAIN.eNodeB1.sctp  "Queued Sent Bytes 16:Total"  ETV
vector 2062  CAIN.eNodeB.sctp  "TSN Received 13:10.0.5.2"  ETV
vector 2038  CAIN.eNodeB.sctp  "Queued Received Bytes 13:Total"  ETV
vector 2034  CAIN.eNodeB.sctp  "Advertised Receiver Window 13"  ETV
vector 2043  CAIN.eNodeB.sctp  "Number of Total Gap Blocks Stored 13"  ETV
vector 2044  CAIN.eNodeB.sctp  "Number of Revokable Gap Blocks Stored 13"  ETV
vector 2045  CAIN.eNodeB.sctp  "Number of Non-Revokable Gap Blocks Stored 13"  ETV
vector 2046  CAIN.eNodeB.sctp  "Number of Duplicate TSNs Stored 13"  ETV
vector 2050  CAIN.eNodeB.sctp  "Length of SACK Sent 13"  ETV
vector 2047  CAIN.eNodeB.sctp  "Number of Revokable Gap Blocks Sent 13"  ETV
vector 2048  CAIN.eNodeB.sctp  "Number of Non-Revokable Gap Blocks Sent 13"  ETV
vector 2049  CAIN.eNodeB.sctp  "Number of Duplicate TSNs Sent 13"  ETV
vector 2054  CAIN.eNodeB.sctp  "End to End Delay of Association 13"  ETV
vector 1833  CAIN.eNodeB.x2App[0].client  rcvdPk:vector(packetBytes)  ETV
attr interpolationmode  none
attr source  rcvdPk
attr title  "packets received, vector(packetBytes)"
vector 2448  CAIN.eNodeB1.sctp  "Number of Gap Blocks in Last SACK of Association 17"  ETV
vector 2019  CAIN.eNodeB1.sctp  "Number of Revokable Gap Blocks in SACK 16"  ETV
vector 2020  CAIN.eNodeB1.sctp  "Number of Non-Revokable Gap Blocks in SACK 16"  ETV
vector 2230  CAIN.eNodeB1.sctp  "TSN Acked CumAck 17:10.0.5.1"  ETV
vector 2196  CAIN.eNodeB1.sctp  "Number of Gap Acked Chunks in Last SACK 17:10.0.2.2"  ETV
vector 2197  CAIN.eNodeB1.sctp  "Number of Non-Revokable Gap Acked Chunks in Last SACK 17:10.0.2.2"  ETV
vector 2198  CAIN.eNodeB1.sctp  "Number of Gap Missed Chunks in Last SACK 17:10.0.2.2"  ETV
vector 2169  CAIN.eNodeB1.sctp  "Number of Gap Acked Chunks in Last SACK 17:10.0.4.1"  ETV
vector 2170  CAIN.eNodeB1.sctp  "Number of Non-Revokable Gap Acked Chunks in Last SACK 17:10.0.4.1"  ETV
vector 2171  CAIN.eNodeB1.sctp  "Number of Gap Missed Chunks in Last SACK 17:10.0.4.1"  ETV
vector 2223  CAIN.eNodeB1.sctp  "Number of Gap Acked Chunks in Last SACK 17:10.0.5.1"  ETV
vector 2224  CAIN.eNodeB1.sctp  "Number of Non-Revokable Gap Acked Chunks in Last SACK 17:10.0.5.1"  ETV
vector 2225  CAIN.eNodeB1.sctp  "Number of Gap Missed Chunks in Last SACK 17:10.0.5.1"  ETV
vector 2029  CAIN.eNodeB1.sctp  "Arwnd in Last SACK 16"  ETV
vector 2232  CAIN.eNodeB1.sctp  "TSN PseudoCumAck 17:10.0.5.1"  ETV
vector 2233  CAIN.eNodeB1.sctp  "TSN RTXPseudoCumAck 17:10.0.5.1"  ETV
vector 2226  CAIN.eNodeB1.sctp  "Partial Bytes Acked 17:10.0.5.1"  ETV
vector 1846  CAIN.eNodeB1.nic.mac  receivedPacketFromLowerLayer:vector(packetBytes)  ETV
attr interpolationmode  none
attr source  receivedPacketFromLowerLayer
vector 2529  CAIN.ueD2DTx[0].tcp  tcpRcvQueueBytes  ETV
vector 2516  CAIN.ueD2DTx[0].tcp  "advertised window"  ETV
vector 2515  CAIN.ueD2DTx[0].tcp  "receive window"  ETV
vector 2518  CAIN.ueD2DTx[0].tcp  "sent ack"  ETV
vector 1897  CAIN.ueD2DTx[0].nic.pdcpRrc  receivedPacketFromUpperLayer:vector(packetBytes)  ETV
attr interpolationmode  none
attr source  receivedPacketFromUpperLayer
vector 1900  CAIN.ueD2DTx[0].nic.pdcpRrc  sentPacketToLowerLayer:vector(packetBytes)  ETV
attr interpolationmode  none
attr source  sentPacketToLowerLayer
vector 1901  CAIN.ueD2DTx[0].nic.mac  receivedPacketFromUpperLayer:vector(packetBytes)  ETV
attr interpolationmode  none
attr source  receivedPacketFromUpperLayer
vector 1807  CAIN.eNodeB.nic.phy  averageCqiUlvect:vector  ETV
attr source  averageCqiUlvect
attr title  "Average Cqi reported in UL, vector"
attr unit  cqi
vector 1911  CAIN.ueD2DTx[0].nic.mac  CainHopMessageSent:vector  ETV
attr interpolationmode  none
attr title  "# of Sent CAIN hop message, vector"
vector 1974  CAIN.ueD2DTx[2].nic.mac  CainMessageSent:vector  ETV
attr interpolationmode  none
attr title  "# of Sent CAIN message, vector"
vector 1861  CAIN.eNodeB1.nic.mac  racpkt:vector  ETV
attr interpolationmode  none
attr title  "eNB received racpkt message, vector"
vector 1862  CAIN.eNodeB1.nic.mac  racDistanceSignal:vector  ETV
attr interpolationmode  none
attr title  "Rac distance to enb, vector"
vector 1863  CAIN.eNodeB1.nic.mac  racServedDevsSignal:vector  ETV
attr interpolationmode  none
attr title  "# of devices served on rac arriavall, vector"
vector 1848  CAIN.eNodeB1.nic.mac  sentPacketToLowerLayer:vector(packetBytes)  ETV
attr interpolationmode  none
attr source  sentPacketToLowerLayer
vector 1865  CAIN.eNodeB1.nic.phy  averageCqiUlvect:vector  ETV
attr source  averageCqiUlvect
attr title  "Average Cqi reported in UL, vector"
attr unit  cqi
1700	0	0	0
1701	0	0	0
1716	0	0	0
1717	0	0	0
1727	0	0	0
1728	0	0	0
1748	0	0	0
1749	0	0	0
1759	0	0	0
1760	0	0	0
1770	0	0	0
1771	0	0	0
1788	239	0.002	0
1788	242	0.002	0
1788	245	0.002	0
1788	333	0.008	0
1788	390	0.014	0
1788	447	0.02	0
1788	504	0.026	0
1788	573	0.032	0
1788	595	0.033	0
1788	634	0.036	0
1788	666	0.038	0
1788	669	0.038	0
1788	705	0.041	0
1788	740	0.043	0
1788	750	0.044	0
1788	779	0.046	0
1788	805	0.048	0
1788	837	0.05	0
1788	853	0.051	0
1788	876	0.053	0
1788	921	0.056	0
1788	927	0.056	0
1788	988	0.058	0
1788	1027	0.062	0
1788	1090	0.068	0
1788	1153	0.074	0
1788	1216	0.08	0
1788	1279	0.086	0
1788	1342	0.092	0
1788	1397	0.096	0
1788	1420	0.098	0
1788	1457	0.1	0
1788	1466	0.101	0
1788	1504	0.104	0
1788	1529	0.105	0
1788	1538	0.106	0
1788	1586	0.11	0
1788	1593	0.11	0
1788	1654	0.116	0
1788	1710	0.121	0
1788	1721	0.122	0
1788	1756	0.125	0
1788	1768	0.126	0
1788	1792	0.128	0
1788	1820	0.13	0
1788	1829	0.131	0
1788	1867	0.134	0
1788	1884	0.135	0
1788	1893	0.136	0
1788	1941	0.14	0
1788	1948	0.14	0
1788	2009	0.146	0
1788	2065	0.151	0
1788	2076	0.152	0
1788	2111	0.155	0
1788	2123	0.156	0
1788	2147	0.158	0
1788	2175	0.16	0
1788	2184	0.161	0
1788	2222	0.164	0
1788	2239	0.165	0
1788	2248	0.166	0
1788	2296	0.17	0
1788	2303	0.17	0
1788	2364	0.176	0
1788	2420	0.181	0
1788	2431	0.182	0
1788	2466	0.185	0
1788	2478	0.186	0
1788	2502	0.188	0
1788	2530	0.19	0
1788	2539	0.191	0
1788	2577	0.194	0
1788	2594	0.195	0
1788	2603	0.196	0
1788	2654	0.2	0
1788	2661	0.2	0
1788	2722	0.206	0
1788	2873	0.211	0
1788	2884	0.212	0
1788	2919	0.215	0
1788	2931	0.216	0
1788	2955	0.218	0
1788	2983	0.22	0
1788	2992	0.221	0
1788	3030	0.224	0
1788	3047	0.225	0
1788	3056	0.226	0
1788	3104	0.23	0
1788	3111	0.23	0
1788	3172	0.236	0
1788	3228	0.241	0
1788	3239	0.242	0
1788	3274	0.245	0
1788	3286	0.246	0
1788	3310	0.248	0
1788	3338	0.25	0
1788	3347	0.251	0
1788	3385	0.254	0
1788	3402	0.255	0
1788	3411	0.256	0
1788	3554	0.26	0
1788	3561	0.26	0
1788	3622	0.266	0
1788	3678	0.271	0
1788	3689	0.272	0
1788	3724	0.275	0
1788	3736	0.276	0
1788	3760	0.278	0
1788	3788	0.28	0
1788	3797	0.281	0
1788	3835	0.284	0
1788	3852	0.285	0
1788	3861	0.286	0
1788	3909	0.29	0
1788	3916	0.29	0
1788	3977	0.296	0
1788	4036	0.301	0
1788	4047	0.302	0
1788	4082	0.305	0
1788	4094	0.306	0
1788	4118	0.308	0
1788	4146	0.31	0
1788	4155	0.311	0
1788	4193	0.314	0
1788	4210	0.315	0
1788	4219	0.316	0
1788	4267	0.32	0
1788	4274	0.32	0
1788	4335	0.326	0
1788	4391	0.331	0
1788	4402	0.332	0
1788	4437	0.335	0
1788	4449	0.336	0
1788	4473	0.338	0
1788	4501	0.34	0
1788	4510	0.341	0
1788	4548	0.344	0
1788	4565	0.345	0
1788	4574	0.346	0
1788	4622	0.35	0
1788	4629	0.35	0
1788	4690	0.356	0
1788	4746	0.361	0
1788	4757	0.362	0
1788	4792	0.365	0
1788	4804	0.366	0
1788	4828	0.368	0
1788	4856	0.37	0
1788	4865	0.371	0
1788	4903	0.374	0
1788	4920	0.375	0
1788	4929	0.376	0
1788	4977	0.38	0
1788	4984	0.38	0
1788	5045	0.386	0
1788	5101	0.391	0
1788	5112	0.392	0
1788	5147	0.395	0
1788	5159	0.396	0
1788	5183	0.398	0
1788	5214	0.4	0
1788	5223	0.401	0
1788	5261	0.404	0
1788	5278	0.405	0
1788	5287	0.406	0
1788	5343	0.41	0
1788	5350	0.41	0
1788	5411	0.416	0
1788	5467	0.421	0
1788	5478	0.422	0
1788	5513	0.425	0
1788	5525	0.426	0
1788	5549	0.428	0
1788	5577	0.43	0
1788	5586	0.431	0
1788	5624	0.434	0
1788	5641	0.435	0
1788	5650	0.436	0
1788	5698	0.44	0
1788	5705	0.44	0
1788	5766	0.446	0
1788	5822	0.451	0
1788	5833	0.452	0
1788	5868	0.455	0
1788	5880	0.456	0
1788	5912	0.458	0
1788	5940	0.46	0
1788	5949	0.461	0
1788	5987	0.464	0
1788	6004	0.465	0
1788	6013	0.466	0
1788	6061	0.47	0
1788	6068	0.47	0
1788	6129	0.476	0
1788	6185	0.481	0
1788	6196	0.482	0
1788	6231	0.485	0
1788	6243	0.486	0
1788	6267	0.488	0
1788	6295	0.49	0
1788	6304	0.491	0
1788	6342	0.494	0
1788	6359	0.495	0
1788	6368	0.496	0
1788	6419	0.5	0
1788	6426	0.5	0
1788	6487	0.506	0
1788	6543	0.511	0
1788	6554	0.512	0
1788	6589	0.515	0
1788	6601	0.516	0
1788	6625	0.518	0
1788	6653	0.52	0
1788	6662	0.521	0
1788	6700	0.524	0
1788	6717	0.525	0
1788	6726	0.526	0
1788	6774	0.53	0
1788	6781	0.53	0
1788	6842	0.536	0
1788	6898	0.541	0
1788	6909	0.542	0
1788	6944	0.545	0
1788	6956	0.546	0
1788	6980	0.548	0
1788	7008	0.55	0
1788	7017	0.551	0
1788	7055	0.554	0
1788	7072	0.555	0
1788	7081	0.556	0
1788	7129	0.56	0
1788	7136	0.56	0
1788	7197	0.566	0
1788	7253	0.571	0
1788	7264	0.572	0
1788	7299	0.575	0
1788	7311	0.576	0
1788	7335	0.578	0
1788	7363	0.58	0
1788	7372	0.581	0
1788	7410	0.584	0
1788	7427	0.585	0
1788	7436	0.586	0
1788	7484	0.59	0
1788	7491	0.59	0
1788	7552	0.596	0
1788	7611	0.601	0
1788	7622	0.602	0
1788	7657	0.605	0
1788	7669	0.606	0
1788	7693	0.608	0
1788	7721	0.61	0
1788	7730	0.611	0
1788	7768	0.614	0
1788	7785	0.615	0
1788	7794	0.616	0
1788	7842	0.62	0
1788	7849	0.62	0
1788	7910	0.626	0
1788	7966	0.631	0
1788	7977	0.632	0
1788	8012	0.635	0
1788	8024	0.636	0
1788	8048	0.638	0
1788	8076	0.64	0
1788	8085	0.641	0
1788	8123	0.644	0
1788	8140	0.645	0
1788	8149	0.646	0
1788	8197	0.65	0
1788	8204	0.65	0
1788	8265	0.656	0
1788	8321	0.661	0
1788	8332	0.662	0
1788	8367	0.665	0
1788	8379	0.666	0
1788	8403	0.668	0
1788	8431	0.67	0
1788	8440	0.671	0
1788	8478	0.674	0
1788	8495	0.675	0
1788	8504	0.676	0
1788	8552	0.68	0
1788	8559	0.68	0
1788	8620	0.686	0
1788	8676	0.691	0
1788	8687	0.692	0
1788	8722	0.695	0
1788	8734	0.696	0
1788	8758	0.698	0
1788	8789	0.7	0
1788	8798	0.701	0
1788	8836	0.704	0
1788	8853	0.705	0
1788	8862	0.706	0
1788	8910	0.71	0
1788	8917	0.71	0
1788	8978	0.716	0
1788	9034	0.721	0
1788	9045	0.722	0
1788	9080	0.725	0
1788	9092	0.726	0
1788	9116	0.728	0
1788	9144	0.73	0
1788	9153	0.731	0
1788	9191	0.734	0
1788	9208	0.735	0
1788	9217	0.736	0
1788	9265	0.74	0
1788	9272	0.74	0
1788	9333	0.746	0
1788	9389	0.751	0
1788	9400	0.752	0
1788	9435	0.755	0
1788	9447	0.756	0
1788	9471	0.758	0
1788	9499	0.76	0
1788	9508	0.761	0
1788	9546	0.764	0
1788	9563	0.765	0
1788	9572	0.766	0
1788	9620	0.77	0
1788	9627	0.77	0
1788	9688	0.776	0
1788	9744	0.781	0
1788	9755	0.782	0
1788	9790	0.785	0
1788	9802	0.786	0
1788	9826	0.788	0
1788	9854	0.79	0
1788	9863	0.791	0
1788	9901	0.794	0
1788	9918	0.795	0
1788	9927	0.796	0
1788	9978	0.8	0
1788	9985	0.8	0
1788	10046	0.806	0
1788	10102	0.811	0
1788	10113	0.812	0
1788	10148	0.815	0
1788	10160	0.816	0
1788	10184	0.818	0
1788	10212	0.82	0
1788	10221	0.821	0
1788	10259	0.824	0
1788	10276	0.825	0
1788	10285	0.826	0
1788	10333	0.83	0
1788	10340	0.83	0
1788	10401	0.836	0
1788	10457	0.841	0
1788	10468	0.842	0
1788	10503	0.845	0
1788	10515	0.846	0
1788	10539	0.848	0
1788	10567	0.85	0
1788	10576	0.851	0
1788	10614	0.854	0
1788	10631	0.855	0
1788	10640	0.856	0
1788	10688	0.86	0
1788	10695	0.86	0
1788	10756	0.866	0
1788	10812	0.871	0
1788	10823	0.872	0
1788	10858	0.875	0
1788	10870	0.876	0
1788	10894	0.878	0
1788	10922	0.88	0
1788	10931	0.881	0
1788	10969	0.884	0
1788	10986	0.885	0
1788	10995	0.886	0
1788	11043	0.89	0
1788	11050	0.89	0
1788	11111	0.896	0
1788	11170	0.901	0
1788	11181	0.902	0
1788	11216	0.905	0
1788	11228	0.906	0
1788	11252	0.908	0
1788	11280	0.91	0
1788	11289	0.911	0
1788	11327	0.914	0
1788	11344	0.915	0
1788	11353	0.916	0
1788	11401	0.92	0
1788	11408	0.92	0
1788	11469	0.926	0
1788	11525	0.931	0
1788	11536	0.932	0
1788	11571	0.935	0
1788	11583	0.936	0
1788	11607	0.938	0
1788	11635	0.94	0
1788	11644	0.941	0
1788	11682	0.944	0
1788	11699	0.945	0
1788	11708	0.946	0
1788	11756	0.95	0
1788	11763	0.95	0
1788	11824	0.956	0
1788	11880	0.961	0
1788	11891	0.962	0
1788	11926	0.965	0
1788	11938	0.966	0
1788	11962	0.968	0
1788	11990	0.97	0
1788	11999	0.971	0
1788	12037	0.974	0
1788	12054	0.975	0
1788	12063	0.976	0
1788	12111	0.98	0
1788	12118	0.98	0
1788	12179	0.986	0
1788	12235	0.991	0
1788	12246	0.992	0
1788	12281	0.995	0
1788	12293	0.996	0
1788	12317	0.998	0
1788	12348	1	0
1788	12357	1.001	0
1788	12395	1.004	0
1788	12412	1.005	0
1788	12421	1.006	0
1788	12469	1.01	0
1788	12476	1.01	0
1788	12537	1.016	0
1788	12593	1.021	0
1788	12604	1.022	0
1788	12639	1.025	0
1788	12651	1.026	0
1788	12675	1.028	0
1788	12703	1.03	0
1788	12712	1.031	0
1788	12750	1.034	0
1788	12767	1.035	0
1788	12776	1.036	0
1788	12824	1.04	0
1788	12831	1.04	0
1788	12892	1.046	0
1788	12948	1.051	0
1788	12959	1.052	0
1788	12994	1.055	0
1788	13006	1.056	0
1788	13030	1.058	0
1788	13058	1.06	0
1788	13067	1.061	0
1788	13105	1.064	0
1788	13122	1.065	0
1788	13131	1.066	0
1788	13179	1.07	0
1788	13186	1.07	0
1788	13247	1.076	0
1788	13303	1.081	0
1788	13314	1.082	0
1788	13349	1.085	0
1788	13361	1.086	0
1788	13385	1.088	0
1788	13413	1.09	0
1788	13422	1.091	0
1788	13460	1.094	0
1788	13477	1.095	0
1788	13486	1.096	0
1788	13537	1.1	0
1788	13544	1.1	0
1788	13605	1.106	0
1788	13661	1.111	0
1788	13672	1.112	0
1788	13707	1.115	0
1788	13719	1.116	0
1788	13743	1.118	0
1788	13771	1.12	0
1788	13780	1.121	0
1788	13818	1.124	0
1788	13835	1.125	0
1788	13844	1.126	0
1788	13892	1.13	0
1788	13899	1.13	0
1788	13960	1.136	0
1788	14016	1.141	0
1788	14027	1.142	0
1788	14062	1.145	0
1788	14074	1.146	0
1788	14098	1.148	0
1788	14126	1.15	0
1788	14135	1.151	0
1788	14173	1.154	0
1788	14190	1.155	0
1788	14199	1.156	0
1788	14247	1.16	0
1788	14254	1.16	0
1788	14315	1.166	0
1788	14371	1.171	0
1788	14382	1.172	0
1788	14417	1.175	0
1788	14429	1.176	0
1788	14453	1.178	0
1788	14481	1.18	0
1788	14490	1.181	0
1788	14528	1.184	0
1788	14545	1.185	0
1788	14554	1.186	0
1788	14602	1.19	0
1788	14609	1.19	0
1788	14670	1.196	0
1788	14729	1.201	0
1788	14740	1.202	0
1788	14775	1.205	0
1788	14787	1.206	0
1788	14812	1.208	0
1788	14840	1.21	0
1788	14849	1.211	0
1788	14887	1.214	0
1788	14904	1.215	0
1788	14913	1.216	0
1788	14961	1.22	0
1788	14968	1.22	0
1788	15029	1.226	0
1788	15085	1.231	0
1788	15096	1.232	0
1788	15131	1.235	0
1788	15143	1.236	0
1788	15167	1.238	0
1788	15195	1.24	0
1788	15204	1.241	0
1788	15242	1.244	0
1788	15259	1.245	0
1788	15268	1.246	0
1788	15316	1.25	0
1788	15323	1.25	0
1788	15384	1.256	0
1788	15441	1.261	0
1788	15452	1.262	0
1788	15487	1.265	0
1788	15499	1.266	0
1788	15523	1.268	0
1788	15551	1.27	0
1788	15560	1.271	0
1788	15598	1.274	0
1788	15615	1.275	0
1788	15624	1.276	0
1788	15672	1.28	0
1788	15679	1.28	0
1788	15740	1.286	0
1788	15796	1.291	0
1788	15807	1.292	0
1788	15842	1.295	0
1788	15854	1.296	0
1788	15878	1.298	0
1788	15909	1.3	0
1788	15918	1.301	0
1788	15956	1.304	0
1788	15973	1.305	0
1788	15982	1.306	0
1788	16030	1.31	0
1788	16037	1.31	0
1788	16098	1.316	0
1788	16154	1.321	0
1788	16165	1.322	0
1788	16200	1.325	0
1788	16212	1.326	0
1788	16236	1.328	0
1788	16264	1.33	0
1788	16273	1.331	0
1788	16311	1.334	0
1788	16328	1.335	0
1788	16337	1.336	0
1788	16385	1.34	0
1788	16392	1.34	0
1788	16453	1.346	0
1788	16509	1.351	0
1788	16520	1.352	0
1788	16555	1.355	0
1788	16567	1.356	0
1788	16591	1.358	0
1788	16619	1.36	0
1788	16628	1.361	0
1788	16666	1.364	0
1788	16683	1.365	0
1788	16692	1.366	0
1788	16740	1.37	0
1788	16747	1.37	0
1788	16808	1.376	0
1788	16864	1.381	0
1788	16875	1.382	0
1788	16910	1.385	0
1788	16922	1.386	0
1788	16946	1.388	0
1788	16974	1.39	0
1788	16983	1.391	0
1788	17021	1.394	0
1788	17038	1.395	0
1788	17047	1.396	0
1788	17098	1.4	0
1788	17105	1.4	0
1788	17166	1.406	0
1788	17222	1.411	0
1788	17233	1.412	0
1788	17268	1.415	0
1788	17280	1.416	0
1788	17304	1.418	0
1788	17332	1.42	0
1788	17341	1.421	0
1788	17379	1.424	0
1788	17396	1.425	0
1788	17405	1.426	0
1788	17453	1.43	0
1788	17460	1.43	0
1788	17521	1.436	0
1788	17577	1.441	0
1788	17588	1.442	0
1788	17623	1.445	0
1788	17635	1.446	0
1788	17659	1.448	0
1788	17687	1.45	0
1788	17696	1.451	0
1788	17734	1.454	0
1788	17751	1.455	0
1788	17760	1.456	0
1788	17808	1.46	0
1788	17815	1.46	0
1788	17876	1.466	0
1788	17932	1.471	0
1788	17943	1.472	0
1788	17978	1.475	0
1788	17990	1.476	0
1788	18014	1.478	0
1788	18042	1.48	0
1788	18051	1.481	0
1788	18089	1.484	0
1788	18106	1.485	0
1788	18115	1.486	0
1788	18163	1.49	0
1788	18170	1.49	0
1788	18231	1.496	0
1788	18290	1.501	0
1788	18301	1.502	0
1788	18336	1.505	0
1788	18348	1.506	0
1788	18372	1.508	0
1788	18400	1.51	0
1788	18409	1.511	0
1788	18447	1.514	0
1788	18464	1.515	0
1788	18473	1.516	0
1788	18521	1.52	0
1788	18528	1.52	0
1788	18589	1.526	0
1788	18645	1.531	0
1788	18656	1.532	0
1788	18691	1.535	0
1788	18703	1.536	0
1788	18727	1.538	0
1788	18755	1.54	0
1788	18764	1.541	0
1788	18802	1.544	0
1788	18819	1.545	0
1788	18828	1.546	0
1788	18876	1.55	0
1788	18883	1.55	0
1788	18944	1.556	0
1788	19000	1.561	0
1788	19011	1.562	0
1788	19046	1.565	0
1788	19058	1.566	0
1788	19082	1.568	0
1788	19110	1.57	0
1788	19119	1.571	0
1788	19157	1.574	0
1788	19174	1.575	0
1788	19183	1.576	0
1788	19231	1.58	0
1788	19238	1.58	0
1788	19299	1.586	0
1788	19355	1.591	0
1788	19366	1.592	0
1788	19401	1.595	0
1788	19413	1.596	0
1788	19437	1.598	0
1788	19468	1.6	0
1788	19477	1.601	0
1788	19515	1.604	0
1788	19532	1.605	0
1788	19541	1.606	0
1788	19589	1.61	0
1788	19596	1.61	0
1788	19657	1.616	0
1788	19713	1.621	0
1788	19724	1.622	0
1788	19759	1.625	0
1788	19771	1.626	0
1788	19795	1.628	0
1788	19823	1.63	0
1788	19832	1.631	0
1788	19870	1.634	0
1788	19887	1.635	0
1788	19896	1.636	0
1788	19944	1.64	0
1788	19951	1.64	0
1788	20012	1.646	0
1788	20068	1.651	0
1788	20079	1.652	0
1788	20114	1.655	0
1788	20126	1.656	0
1788	20150	1.658	0
1788	20178	1.66	0
1788	20187	1.661	0
1788	20225	1.664	0
1788	20242	1.665	0
1788	20251	1.666	0
1788	20299	1.67	0
1788	20306	1.67	0
1788	20367	1.676	0
1788	20423	1.681	0
1788	20434	1.682	0
1788	20469	1.685	0
1788	20481	1.686	0
1788	20505	1.688	0
1788	20533	1.69	0
1788	20542	1.691	0
1788	20580	1.694	0
1788	20597	1.695	0
1788	20606	1.696	0
1788	20657	1.7	0
1788	20664	1.7	0
1788	20725	1.706	0
1788	20781	1.711	0
1788	20792	1.712	0
1788	20827	1.715	0
1788	20839	1.716	0
1788	20863	1.718	0
1788	20891	1.72	0
1788	20900	1.721	0
1788	20938	1.724	0
1788	20955	1.725	0
1788	20964	1.726	0
1788	21012	1.73	0
1788	21019	1.73	0
1788	21080	1.736	0
1788	21136	1.741	0
1788	21147	1.742	0
1788	21182	1.745	0
1788	21194	1.746	0
1788	21218	1.748	0
1788	21246	1.75	0
1788	21255	1.751	0
1788	21293	1.754	0
1788	21310	1.755	0
1788	21319	1.756	0
1788	21367	1.76	0
1788	21374	1.76	0
1788	21435	1.766	0
1788	21491	1.771	0
1788	21502	1.772	0
1788	21537	1.775	0
1788	21549	1.776	0
1788	21573	1.778	0
1788	21601	1.78	0
1788	21610	1.781	0
1788	21648	1.784	0
1788	21665	1.785	0
1788	21674	1.786	0
1788	21722	1.79	0
1788	21729	1.79	0
1788	21790	1.796	0
1788	21849	1.801	0
1788	21860	1.802	0
1788	21895	1.805	0
1788	21907	1.806	0
1788	21931	1.808	0
1788	21959	1.81	0
1788	21968	1.811	0
1788	22006	1.814	0
1788	22023	1.815	0
1788	22032	1.816	0
1788	22080	1.82	0
1788	22087	1.82	0
1788	22148	1.826	0
1788	22204	1.831	0
1788	22215	1.832	0
1788	22250	1.835	0
1788	22262	1.836	0
1788	22286	1.838	0
1788	22314	1.84	0
1788	22323	1.841	0
1788	22361	1.844	0
1788	22378	1.845	0
1788	22387	1.846	0
1788	22435	1.85	0
1788	22442	1.85	0
1788	22503	1.856	0
1788	22559	1.861	0
1788	22570	1.862	0
1788	22605	1.865	0
1788	22617	1.866	0
1788	22641	1.868	0
1788	22669	1.87	0
1788	22678	1.871	0
1788	22716	1.874	0
1788	22733	1.875	0
1788	22742	1.876	0
1788	22790	1.88	0
1788	22797	1.88	0
1788	22858	1.886	0
1788	22914	1.891	0
1788	22925	1.892	0
1788	22960	1.895	0
1788	22972	1.896	0
1788	22996	1.898	0
1788	23027	1.9	0
1788	23036	1.901	0
1788	23074	1.904	0
1788	23091	1.905	0
1788	23100	1.906	0
1788	23148	1.91	0
1788	23155	1.91	0
1788	23216	1.916	0
1788	23272	1.921	0
1788	23283	1.922	0
1788	23318	1.925	0
1788	23330	1.926	0
1788	23354	1.928	0
1788	23382	1.93	0
1788	23391	1.931	0
1788	23429	1.934	0
1788	23446	1.935	0
1788	23455	1.936	0
1788	23503	1.94	0
1788	23510	1.94	0
1788	23571	1.946	0
1788	23627	1.951	0
1788	23638	1.952	0
1788	23673	1.955	0
1788	23685	1.956	0
1788	23709	1.958	0
1788	23737	1.96	0
1788	23746	1.961	0
1788	23784	1.964	0
1788	23801	1.965	0
1788	23810	1.966	0
1788	23858	1.97	0
1788	23865	1.97	0
1788	23926	1.976	0
1788	23982	1.981	0
1788	23993	1.982	0
1788	24028	1.985	0
1788	24040	1.986	0
1788	24064	1.988	0
1788	24092	1.99	0
1788	24101	1.991	0
1788	24139	1.994	0
1788	24156	1.995	0
1788	24165	1.996	0
1788	24216	2	0
1788	24223	2	0
1788	24284	2.006	0
1788	24340	2.011	0
1788	24351	2.012	0
1788	24386	2.015	0
1788	24398	2.016	0
1788	24422	2.018	0
1788	24450	2.02	0
1788	24459	2.021	0
1788	24497	2.024	0
1788	24514	2.025	0
1788	24523	2.026	0
1788	24571	2.03	0
1788	24578	2.03	0
1788	24639	2.036	0
1788	24695	2.041	0
1788	24706	2.042	0
1788	24741	2.045	0
1788	24753	2.046	0
1788	24777	2.048	0
1788	24805	2.05	0
1788	24814	2.051	0
1788	24852	2.054	0
1788	24869	2.055	0
1788	24878	2.056	0
1788	24926	2.06	0
1788	24933	2.06	0
1788	24994	2.066	0
1788	25050	2.071	0
1788	25061	2.072	0
1788	25096	2.075	0
1788	25108	2.076	0
1788	25132	2.078	0
1788	25160	2.08	0
1788	25169	2.081	0
1788	25207	2.084	0
1788	25224	2.085	0
1788	25233	2.086	0
1788	25281	2.09	0
1788	25288	2.09	0
1788	25349	2.096	0
1788	25408	2.101	0
1788	25419	2.102	0
1788	25454	2.105	0
1788	25466	2.106	0
1788	25490	2.108	0
1788	25518	2.11	0
1788	25527	2.111	0
1788	25565	2.114	0
1788	25582	2.115	0
1788	25591	2.116	0
1788	25639	2.12	0
1788	25646	2.12	0
1788	25707	2.126	0
1788	25763	2.131	0
1788	25774	2.132	0
1788	25809	2.135	0
1788	25821	2.136	0
1788	25845	2.138	0
1788	25873	2.14	0
1788	25882	2.141	0
1788	25920	2.144	0
1788	25937	2.145	0
1788	25946	2.146	0
1788	25994	2.15	0
1788	26001	2.15	0
1788	26062	2.156	0
1788	26118	2.161	0
1788	26129	2.162	0
1788	26164	2.165	0
1788	26176	2.166	0
1788	26200	2.168	0
1788	26228	2.17	0
1788	26237	2.171	0
1788	26275	2.174	0
1788	26292	2.175	0
1788	26301	2.176	0
1788	26349	2.18	0
1788	26356	2.18	0
1788	26417	2.186	0
1788	26473	2.191	0
1788	26484	2.192	0
1788	26519	2.195	0
1788	26531	2.196	0
1788	26555	2.198	0
1788	26586	2.2	0
1788	26595	2.201	0
1788	26633	2.204	0
1788	26650	2.205	0
1788	26659	2.206	0
1788	26707	2.21	0
1788	26714	2.21	0
1788	26775	2.216	0
1788	26831	2.221	0
1788	26842	2.222	0
1788	26877	2.225	0
1788	26889	2.226	0
1788	26913	2.228	0
1788	26941	2.23	0
1788	26950	2.231	0
1788	26988	2.234	0
1788	27005	2.235	0
1788	27014	2.236	0
1788	27062	2.24	0
1788	27069	2.24	0
1788	27130	2.246	0
1788	27186	2.251	0
1788	27197	2.252	0
1788	27232	2.255	0
1788	27244	2.256	0
1788	27268	2.258	0
1788	27296	2.26	0
1788	27305	2.261	0
1788	27343	2.264	0
1788	27360	2.265	0
1788	27369	2.266	0
1788	27417	2.27	0
1788	27424	2.27	0
1788	27485	2.276	0
1788	27541	2.281	0
1788	27552	2.282	0
1788	27587	2.285	0
1788	27599	2.286	0
1788	27623	2.288	0
1788	27651	2.29	0
1788	27660	2.291	0
1788	27698	2.294	0
1788	27715	2.295	0
1788	27724	2.296	0
1788	27775	2.3	0
1788	27782	2.3	0
1788	27843	2.306	0
1788	27899	2.311	0
1788	27910	2.312	0
1788	27945	2.315	0
1788	27957	2.316	0
1788	27981	2.318	0
1788	28009	2.32	0
1788	28018	2.321	0
1788	28056	2.324	0
1788	28073	2.325	0
1788	28082	2.326	0
1788	28130	2.33	0
1788	28137	2.33	0
1788	28198	2.336	0
1788	28254	2.341	0
1788	28265	2.342	0
1788	28300	2.345	0
1788	28312	2.346	0
1788	28336	2.348	0
1788	28364	2.35	0
1788	28373	2.351	0
1788	28411	2.354	0
1788	28428	2.355	0
1788	28437	2.356	0
1788	28485	2.36	0
1788	28492	2.36	0
1788	28553	2.366	0
1788	28609	2.371	0
1788	28620	2.372	0
1788	28655	2.375	0
1788	28667	2.376	0
1788	28691	2.378	0
1788	28719	2.38	0
1788	28728	2.381	0
1788	28766	2.384	0
1788	28783	2.385	0
1788	28792	2.386	0
1788	28840	2.39	0
1788	28847	2.39	0
1788	28908	2.396	0
1788	28967	2.401	0
1788	28978	2.402	0
1788	29013	2.405	0
1788	29025	2.406	0
1788	29049	2.408	0
1788	29077	2.41	0
1788	29086	2.411	0
1788	29124	2.414	0
1788	29141	2.415	0
1788	29150	2.416	0
1788	29198	2.42	0
1788	29205	2.42	0
1788	29266	2.426	0
1788	29322	2.431	0
1788	29333	2.432	0
1788	29368	2.435	0
1788	29380	2.436	0
1788	29404	2.438	0
1788	29432	2.44	0
1788	29441	2.441	0
1788	29479	2.444	0
1788	29496	2.445	0
1788	29505	2.446	0
1788	29553	2.45	0
1788	29560	2.45	0
1788	29621	2.456	0
1788	29677	2.461	0
1788	29688	2.462	0
1788	29723	2.465	0
1788	29735	2.466	0
1788	29759	2.468	0
1788	29787	2.47	0
1788	29796	2.471	0
1788	29834	2.474	0
1788	29851	2.475	0
1788	29860	2.476	0
1788	29908	2.48	0
1788	29915	2.48	0
1788	29976	2.486	0
1788	30032	2.491	0
1788	30043	2.492	0
1788	30078	2.495	0
1788	30090	2.496	0
1788	30114	2.498	0
1788	30145	2.5	0
1788	30154	2.501	0
1788	30192	2.504	0
1788	30209	2.505	0
1788	30218	2.506	0
1788	30266	2.51	0
1788	30273	2.51	0
1788	30334	2.516	0
1788	30390	2.521	0
1788	30401	2.522	0
1788	30436	2.525	0
1788	30448	2.526	0
1788	30472	2.528	0
1788	30500	2.53	0
1788	30509	2.531	0
1788	30547	2.534	0
1788	30564	2.535	0
1788	30573	2.536	0
1788	30621	2.54	0
1788	30628	2.54	0
1788	30689	2.546	0
1788	30745	2.551	0
1788	30756	2.552	0
1788	30791	2.555	0
1788	30803	2.556	0
1788	30827	2.558	0
1788	30855	2.56	0
1788	30864	2.561	0
1788	30902	2.564	0
1788	30919	2.565	0
1788	30928	2.566	0
1788	30976	2.57	0
1788	30983	2.57	0
1788	31044	2.576	0
1788	31100	2.581	0
1788	31111	2.582	0
1788	31146	2.585	0
1788	31158	2.586	0
1788	31182	2.588	0
1788	31210	2.59	0
1788	31219	2.591	0
1788	31257	2.594	0
1788	31274	2.595	0
1788	31283	2.596	0
1788	31334	2.6	0
1788	31341	2.6	0
1788	31402	2.606	0
1788	31458	2.611	0
1788	31469	2.612	0
1788	31504	2.615	0
1788	31516	2.616	0
1788	31540	2.618	0
1788	31568	2.62	0
1788	31577	2.621	0
1788	31615	2.624	0
1788	31632	2.625	0
1788	31641	2.626	0
1788	31689	2.63	0
1788	31696	2.63	0
1788	31757	2.636	0
1788	31813	2.641	0
1788	31824	2.642	0
1788	31859	2.645	0
1788	31871	2.646	0
1788	31895	2.648	0
1788	31923	2.65	0
1788	31932	2.651	0
1788	31970	2.654	0
1788	31987	2.655	0
1788	31996	2.656	0
1788	32044	2.66	0
1788	32051	2.66	0
1788	32112	2.666	0
1788	32168	2.671	0
1788	32179	2.672	0
1788	32214	2.675	0
1788	32226	2.676	0
1788	32250	2.678	0
1788	32278	2.68	0
1788	32287	2.681	0
1788	32325	2.684	0
1788	32342	2.685	0
1788	32351	2.686	0
1788	32399	2.69	0
1788	32406	2.69	0
1788	32467	2.696	0
1788	32526	2.701	0
1788	32537	2.702	0
1788	32572	2.705	0
1788	32584	2.706	0
1788	32608	2.708	0
1788	32636	2.71	0
1788	32645	2.711	0
1788	32683	2.714	0
1788	32700	2.715	0
1788	32709	2.716	0
1788	32757	2.72	0
1788	32764	2.72	0
1788	32825	2.726	0
1788	32881	2.731	0
1788	32892	2.732	0
1788	32927	2.735	0
1788	32939	2.736	0
1788	32963	2.738	0
1788	32991	2.74	0
1788	33000	2.741	0
1788	33038	2.744	0
1788	33055	2.745	0
1788	33064	2.746	0
1788	33112	2.75	0
1788	33119	2.75	0
1788	33180	2.756	0
1788	33236	2.761	0
1788	33247	2.762	0
1788	33282	2.765	0
1788	33294	2.766	0
1788	33318	2.768	0
1788	33346	2.77	0
1788	33355	2.771	0
1788	33393	2.774	0
1788	33410	2.775	0
1788	33419	2.776	0
1788	33467	2.78	0
1788	33474	2.78	0
1788	33535	2.786	0
1788	33591	2.791	0
1788	33602	2.792	0
1788	33637	2.795	0
1788	33649	2.796	0
1788	33673	2.798	0
1788	33704	2.8	0
1788	33713	2.801	0
1788	33751	2.804	0
1788	33768	2.805	0
1788	33777	2.806	0
1788	33825	2.81	0
1788	33832	2.81	0
1788	33893	2.816	0
1788	33949	2.821	0
1788	33960	2.822	0
1788	33995	2.825	0
1788	34007	2.826	0
1788	34031	2.828	0
1788	34059	2.83	0
1788	34068	2.831	0
1788	34106	2.834	0
1788	34123	2.835	0
1788	34132	2.836	0
1788	34180	2.84	0
1788	34187	2.84	0
1788	34248	2.846	0
1788	34304	2.851	0
1788	34315	2.852	0
1788	34350	2.855	0
1788	34362	2.856	0
1788	34386	2.858	0
1788	34414	2.86	0
1788	34423	2.861	0
1788	34461	2.864	0
1788	34478	2.865	0
1788	34487	2.866	0
1788	34535	2.87	0
1788	34542	2.87	0
1788	34603	2.876	0
1788	34659	2.881	0
1788	34670	2.882	0
1788	34705	2.885	0
1788	34717	2.886	0
1788	34741	2.888	0
1788	34769	2.89	0
1788	34778	2.891	0
1788	34816	2.894	0
1788	34833	2.895	0
1788	34842	2.896	0
1788	34893	2.9	0
1788	34900	2.9	0
1788	34961	2.906	0
1788	35017	2.911	0
1788	35028	2.912	0
1788	35063	2.915	0
1788	35075	2.916	0
1788	35099	2.918	0
1788	35127	2.92	0
1788	35136	2.921	0
1788	35174	2.924	0
1788	35191	2.925	0
1788	35200	2.926	0
1788	35248	2.93	0
1788	35255	2.93	0
1788	35316	2.936	0
1788	35372	2.941	0
1788	35383	2.942	0
1788	35418	2.945	0
1788	35430	2.946	0
1788	35454	2.948	0
1788	35482	2.95	0
1788	35491	2.951	0
1788	35529	2.954	0
1788	35546	2.955	0
1788	35555	2.956	0
1788	35603	2.96	0
1788	35610	2.96	0
1788	35671	2.966	0
1788	35727	2.971	0
1788	35738	2.972	0
1788	35773	2.975	0
1788	35785	2.976	0
1788	35809	2.978	0
1788	35837	2.98	0
1788	35846	2.981	0
1788	35884	2.984	0
1788	35901	2.985	0
1788	35910	2.986	0
1788	35958	2.99	0
1788	35965	2.99	0
1788	36026	2.996	0
1788	36085	3.001	0
1788	36096	3.002	0
1788	36131	3.005	0
1788	36143	3.006	0
1788	36167	3.008	0
1788	36195	3.01	0
1788	36204	3.011	0
1788	36242	3.014	0
1788	36259	3.015	0
1788	36268	3.016	0
1788	36316	3.02	0
1788	36323	3.02	0
1788	36384	3.026	0
1788	36448	3.031	0
1788	36462	3.032	0
1788	36511	3.035	0
1788	36527	3.036	0
1788	36558	3.038	0
1788	36593	3.04	0
1790	595	0.033	0
1790	634	0.036	0
1790	669	0.038	0
1790	705	0.041	0
1790	740	0.043	0
1790	779	0.046	0
1790	805	0.048	0
1790	853	0.051	0
1790	876	0.053	0
1790	927	0.056	0
1790	988	0.058	0
1790	1397	0.096	0
1790	1402	0.097	0
1790	1466	0.101	0
1790	1471	0.102	0
1790	1484	0.103	0
1790	1538	0.106	0
1790	1540	0.107	0
1790	1553	0.108	0
1790	1614	0.113	0
1790	1710	0.121	0
1790	1712	0.122	0
1790	1768	0.126	0
1790	1773	0.127	0
1790	1783	0.128	0
1790	1829	0.131	0
1790	1834	0.132	0
1790	1847	0.133	0
1790	1893	0.136	0
1790	1895	0.137	0
1790	1908	0.138	0
1790	1969	0.143	0
1790	2065	0.151	0
1790	2067	0.152	0
1790	2123	0.156	0
1790	2128	0.157	0
1790	2138	0.158	0
1790	2184	0.161	0
1790	2189	0.162	0
1790	2202	0.163	0
1790	2248	0.166	0
1790	2250	0.167	0
1790	2263	0.168	0
1790	2324	0.173	0
1790	2420	0.181	0
1790	2422	0.182	0
1790	2478	0.186	0
1790	2483	0.187	0
1790	2493	0.188	0
1790	2539	0.191	0
1790	2544	0.192	0
1790	2557	0.193	0
1790	2603	0.196	0
1790	2605	0.197	0
1790	2618	0.198	0
1790	2682	0.203	0
1790	2873	0.211	0
1790	2875	0.212	0
1790	2931	0.216	0
1790	2936	0.217	0
1790	2946	0.218	0
1790	2992	0.221	0
1790	2997	0.222	0
1790	3010	0.223	0
1790	3056	0.226	0
1790	3058	0.227	0
1790	3071	0.228	0
1790	3132	0.233	0
1790	3228	0.241	0
1790	3230	0.242	0
1790	3286	0.246	0
1790	3291	0.247	0
1790	3301	0.248	0
1790	3347	0.251	0
1790	3352	0.252	0
1790	3365	0.253	0
1790	3411	0.256	0
1790	3413	0.257	0
1790	3521	0.258	0
1790	3582	0.263	0
1790	3678	0.271	0
1790	3680	0.272	0
1790	3736	0.276	0
1790	3741	0.277	0
1790	3751	0.278	0
1790	3797	0.281	0
1790	3802	0.282	0
1790	3815	0.283	0
1790	3861	0.286	0
1790	3863	0.287	0
1790	3876	0.288	0
1790	3937	0.293	0
1790	4036	0.301	0
1790	4038	0.302	0
1790	4094	0.306	0
1790	4099	0.307	0
1790	4109	0.308	0
1790	4155	0.311	0
1790	4160	0.312	0
1790	4173	0.313	0
1790	4219	0.316	0
1790	4221	0.317	0
1790	4234	0.318	0
1790	4295	0.323	0
1790	4391	0.331	0
1790	4393	0.332	0
1790	4449	0.336	0
1790	4454	0.337	0
1790	4464	0.338	0
1790	4510	0.341	0
1790	4515	0.342	0
1790	4528	0.343	0
1790	4574	0.346	0
1790	4576	0.347	0
1790	4589	0.348	0
1790	4650	0.353	0
1790	4746	0.361	0
1790	4748	0.362	0
1790	4804	0.366	0
1790	4809	0.367	0
1790	4819	0.368	0
1790	4865	0.371	0
1790	4870	0.372	0
1790	4883	0.373	0
1790	4929	0.376	0
1790	4931	0.377	0
1790	4944	0.378	0
1790	5005	0.383	0
1790	5101	0.391	0
1790	5103	0.392	0
1790	5159	0.396	0
1790	5164	0.397	0
1790	5174	0.398	0
1790	5223	0.401	0
1790	5228	0.402	0
1790	5241	0.403	0
1790	5287	0.406	0
1790	5289	0.407	0
1790	5310	0.408	0
1790	5371	0.413	0
1790	5467	0.421	0
1790	5469	0.422	0
1790	5525	0.426	0
1790	5530	0.427	0
1790	5540	0.428	0
1790	5586	0.431	0
1790	5591	0.432	0
1790	5604	0.433	0
1790	5650	0.436	0
1790	5652	0.437	0
1790	5665	0.438	0
1790	5726	0.443	0
1790	5822	0.451	0
1790	5824	0.452	0
1790	5880	0.456	0
1790	5885	0.457	0
1790	5903	0.458	0
1790	5949	0.461	0
1790	5954	0.462	0
1790	5967	0.463	0
1790	6013	0.466	0
1790	6015	0.467	0
1790	6028	0.468	0
1790	6089	0.473	0
1790	6185	0.481	0
1790	6187	0.482	0
1790	6243	0.486	0
1790	6248	0.487	0
1790	6258	0.488	0
1790	6304	0.491	0
1790	6309	0.492	0
1790	6322	0.493	0
1790	6368	0.496	0
1790	6370	0.497	0
1790	6383	0.498	0
1790	6447	0.503	0
1790	6543	0.511	0
1790	6545	0.512	0
1790	6601	0.516	0
1790	6606	0.517	0
1790	6616	0.518	0
1790	6662	0.521	0
1790	6667	0.522	0
1790	6680	0.523	0
1790	6726	0.526	0
1790	6728	0.527	0
1790	6741	0.528	0
1790	6802	0.533	0
1790	6898	0.541	0
1790	6900	0.542	0
1790	6956	0.546	0
1790	6961	0.547	0
1790	6971	0.548	0
1790	7017	0.551	0
1790	7022	0.552	0
1790	7035	0.553	0
1790	7081	0.556	0
1790	7083	0.557	0
1790	7096	0.558	0
1790	7157	0.563	0
1790	7253	0.571	0
1790	7255	0.572	0
1790	7311	0.576	0
1790	7316	0.577	0
1790	7326	0.578	0
1790	7372	0.581	0
1790	7377	0.582	0
1790	7390	0.583	0
1790	7436	0.586	0
1790	7438	0.587	0
1790	7451	0.588	0
1790	7512	0.593	0
1790	7611	0.601	0
1790	7613	0.602	0
1790	7669	0.606	0
1790	7674	0.607	0
1790	7684	0.608	0
1790	7730	0.611	0
1790	7735	0.612	0
1790	7748	0.613	0
1790	7794	0.616	0
1790	7796	0.617	0
1790	7809	0.618	0
1790	7870	0.623	0
1790	7966	0.631	0
1790	7968	0.632	0
1790	8024	0.636	0
1790	8029	0.637	0
1790	8039	0.638	0
1790	8085	0.641	0
1790	8090	0.642	0
1790	8103	0.643	0
1790	8149	0.646	0
1790	8151	0.647	0
1790	8164	0.648	0
1790	8225	0.653	0
1790	8321	0.661	0
1790	8323	0.662	0
1790	8379	0.666	0
1790	8384	0.667	0
1790	8394	0.668	0
1790	8440	0.671	0
1790	8445	0.672	0
1790	8458	0.673	0
1790	8504	0.676	0
1790	8506	0.677	0
1790	8519	0.678	0
1790	8580	0.683	0
1790	8676	0.691	0
1790	8678	0.692	0
1790	8734	0.696	0
1790	8739	0.697	0
1790	8749	0.698	0
1790	8798	0.701	0
1790	8803	0.702	0
1790	8816	0.703	0
1790	8862	0.706	0
1790	8864	0.707	0
1790	8877	0.708	0
1790	8938	0.713	0
1790	9034	0.721	0
1790	9036	0.722	0
1790	9092	0.726	0
1790	9097	0.727	0
1790	9107	0.728	0
1790	9153	0.731	0
1790	9158	0.732	0
1790	9171	0.733	0
1790	9217	0.736	0
1790	9219	0.737	0
1790	9232	0.738	0
1790	9293	0.743	0
1790	9389	0.751	0
1790	9391	0.752	0
1790	9447	0.756	0
1790	9452	0.757	0
1790	9462	0.758	0
1790	9508	0.761	0
1790	9513	0.762	0
1790	9526	0.763	0
1790	9572	0.766	0
1790	9574	0.767	0
1790	9587	0.768	0
1790	9648	0.773	0
1790	9744	0.781	0
1790	9746	0.782	0
1790	9802	0.786	0
1790	9807	0.787	0
1790	9817	0.788	0
1790	9863	0.791	0
1790	9868	0.792	0
1790	9881	0.793	0
1790	9927	0.796	0
1790	9929	0.797	0
1790	9942	0.798	0
1790	10006	0.803	0
1790	10102	0.811	0
1790	10104	0.812	0
1790	10160	0.816	0
1790	10165	0.817	0
1790	10175	0.818	0
1790	10221	0.821	0
1790	10226	0.822	0
1790	10239	0.823	0
1790	10285	0.826	0
1790	10287	0.827	0
1790	10300	0.828	0
1790	10361	0.833	0
1790	10457	0.841	0
1790	10459	0.842	0
1790	10515	0.846	0
1790	10520	0.847	0
1790	10530	0.848	0
1790	10576	0.851	0
1790	10581	0.852	0
1790	10594	0.853	0
1790	10640	0.856	0
1790	10642	0.857	0
1790	10655	0.858	0
1790	10716	0.863	0
1790	10812	0.871	0
1790	10814	0.872	0
1790	10870	0.876	0
1790	10875	0.877	0
1790	10885	0.878	0
1790	10931	0.881	0
1790	10936	0.882	0
1790	10949	0.883	0
1790	10995	0.886	0
1790	10997	0.887	0
1790	11010	0.888	0
1790	11071	0.893	0
1790	11170	0.901	0
1790	11172	0.902	0
1790	11228	0.906	0
1790	11233	0.907	0
1790	11243	0.908	0
1790	11289	0.911	0
1790	11294	0.912	0
1790	11307	0.913	0
1790	11353	0.916	0
1790	11355	0.917	0
1790	11368	0.918	0
1790	11429	0.923	0
1790	11525	0.931	0
1790	11527	0.932	0
1790	11583	0.936	0
1790	11588	0.937	0
1790	11598	0.938	0
1790	11644	0.941	0
1790	11649	0.942	0
1790	11662	0.943	0
1790	11708	0.946	0
1790	11710	0.947	0
1790	11723	0.948	0
1790	11784	0.953	0
1790	11880	0.961	0
1790	11882	0.962	0
1790	11938	0.966	0
1790	11943	0.967	0
1790	11953	0.968	0
1790	11999	0.971	0
1790	12004	0.972	0
1790	12017	0.973	0
1790	12063	0.976	0
1790	12065	0.977	0
1790	12078	0.978	0
1790	12139	0.983	0
1790	12235	0.991	0
1790	12237	0.992	0
1790	12293	0.996	0
1790	12298	0.997	0
1790	12308	0.998	0
1790	12357	1.001	0
1790	12362	1.002	0
1790	12375	1.003	0
1790	12421	1.006	0
1790	12423	1.007	0
1790	12436	1.008	0
1790	12497	1.013	0
1790	12593	1.021	0
1790	12595	1.022	0
1790	12651	1.026	0
1790	12656	1.027	0
1790	12666	1.028	0
1790	12712	1.031	0
1790	12717	1.032	0
1790	12730	1.033	0
1790	12776	1.036	0
1790	12778	1.037	0
1790	12791	1.038	0
1790	12852	1.043	0
1790	12948	1.051	0
1790	12950	1.052	0
1790	13006	1.056	0
1790	13011	1.057	0
1790	13021	1.058	0
1790	13067	1.061	0
1790	13072	1.062	0
1790	13085	1.063	0
1790	13131	1.066	0
1790	13133	1.067	0
1790	13146	1.068	0
1790	13207	1.073	0
1790	13303	1.081	0
1790	13305	1.082	0
1790	13361	1.086	0
1790	13366	1.087	0
1790	13376	1.088	0
1790	13422	1.091	0
1790	13427	1.092	0
1790	13440	1.093	0
1790	13486	1.096	0
1790	13488	1.097	0
1790	13501	1.098	0
1790	13565	1.103	0
1790	13661	1.111	0
1790	13663	1.112	0
1790	13719	1.116	0
1790	13724	1.117	0
1790	13734	1.118	0
1790	13780	1.121	0
1790	13785	1.122	0
1790	13798	1.123	0
1790	13844	1.126	0
1790	13846	1.127	0
1790	13859	1.128	0
1790	13920	1.133	0
1790	14016	1.141	0
1790	14018	1.142	0
1790	14074	1.146	0
1790	14079	1.147	0
1790	14089	1.148	0
1790	14135	1.151	0
1790	14140	1.152	0
1790	14153	1.153	0
1790	14199	1.156	0
1790	14201	1.157	0
1790	14214	1.158	0
1790	14275	1.163	0
1790	14371	1.171	0
1790	14373	1.172	0
1790	14429	1.176	0
1790	14434	1.177	0
1790	14444	1.178	0
1790	14490	1.181	0
1790	14495	1.182	0
1790	14508	1.183	0
1790	14554	1.186	0
1790	14556	1.187	0
1790	14569	1.188	0
1790	14630	1.193	0
1790	14729	1.201	0
1790	14731	1.202	0
1790	14787	1.206	0
1790	14792	1.207	0
1790	14803	1.208	0
1790	14849	1.211	0
1790	14854	1.212	0
1790	14867	1.213	0
1790	14913	1.216	0
1790	14915	1.217	0
1790	14928	1.218	0
1790	14989	1.223	0
1790	15085	1.231	0
1790	15087	1.232	0
1790	15143	1.236	0
1790	15148	1.237	0
1790	15158	1.238	0
1790	15204	1.241	0
1790	15209	1.242	0
1790	15222	1.243	0
1790	15268	1.246	0
1790	15270	1.247	0
1790	15283	1.248	0
1790	15344	1.253	0
1790	15441	1.261	0
1790	15443	1.262	0
1790	15499	1.266	0
1790	15504	1.267	0
1790	15514	1.268	0
1790	15560	1.271	0
1790	15565	1.272	0
1790	15578	1.273	0
1790	15624	1.276	0
1790	15626	1.277	0
1790	15639	1.278	0
1790	15700	1.283	0
1790	15796	1.291	0
1790	15798	1.292	0
1790	15854	1.296	0
1790	15859	1.297	0
1790	15869	1.298	0
1790	15918	1.301	0
1790	15923	1.302	0
1790	15936	1.303	0
1790	15982	1.306	0
1790	15984	1.307	0
1790	15997	1.308	0
1790	16058	1.313	0
1790	16154	1.321	0
1790	16156	1.322	0
1790	16212	1.326	0
1790	16217	1.327	0
1790	16227	1.328	0
1790	16273	1.331	0
1790	16278	1.332	0
1790	16291	1.333	0
1790	16337	1.336	0
1790	16339	1.337	0
1790	16352	1.338	0
1790	16413	1.343	0
1790	16509	1.351	0
1790	16511	1.352	0
1790	16567	1.356	0
1790	16572	1.357	0
1790	16582	1.358	0
1790	16628	1.361	0
1790	16633	1.362	0
1790	16646	1.363	0
1790	16692	1.366	0
1790	16694	1.367	0
1790	16707	1.368	0
1790	16768	1.373	0
1790	16864	1.381	0
1790	16866	1.382	0
1790	16922	1.386	0
1790	16927	1.387	0
1790	16937	1.388	0
1790	16983	1.391	0
1790	16988	1.392	0
1790	17001	1.393	0
1790	17047	1.396	0
1790	17049	1.397	0
1790	17062	1.398	0
1790	17126	1.403	0
1790	17222	1.411	0
1790	17224	1.412	0
1790	17280	1.416	0
1790	17285	1.417	0
1790	17295	1.418	0
1790	17341	1.421	0
1790	17346	1.422	0
1790	17359	1.423	0
1790	17405	1.426	0
1790	17407	1.427	0
1790	17420	1.428	0
1790	17481	1.433	0
1790	17577	1.441	0
1790	17579	1.442	0
1790	17635	1.446	0
1790	17640	1.447	0
1790	17650	1.448	0
1790	17696	1.451	0
1790	17701	1.452	0
1790	17714	1.453	0
1790	17760	1.456	0
1790	17762	1.457	0
1790	17775	1.458	0
1790	17836	1.463	0
1790	17932	1.471	0
1790	17934	1.472	0
1790	17990	1.476	0
1790	17995	1.477	0
1790	18005	1.478	0
1790	18051	1.481	0
1790	18056	1.482	0
1790	18069	1.483	0
1790	18115	1.486	0
1790	18117	1.487	0
1790	18130	1.488	0
1790	18191	1.493	0
1790	18290	1.501	0
1790	18292	1.502	0
1790	18348	1.506	0
1790	18353	1.507	0
1790	18363	1.508	0
1790	18409	1.511	0
1790	18414	1.512	0
1790	18427	1.513	0
1790	18473	1.516	0
1790	18475	1.517	0
1790	18488	1.518	0
1790	18549	1.523	0
1790	18645	1.531	0
1790	18647	1.532	0
1790	18703	1.536	0
1790	18708	1.537	0
1790	18718	1.538	0
1790	18764	1.541	0
1790	18769	1.542	0
1790	18782	1.543	0
1790	18828	1.546	0
1790	18830	1.547	0
1790	18843	1.548	0
1790	18904	1.553	0
1790	19000	1.561	0
1790	19002	1.562	0
1790	19058	1.566	0
1790	19063	1.567	0
1790	19073	1.568	0
1790	19119	1.571	0
1790	19124	1.572	0
1790	19137	1.573	0
1790	19183	1.576	0
1790	19185	1.577	0
1790	19198	1.578	0
1790	19259	1.583	0
1790	19355	1.591	0
1790	19357	1.592	0
1790	19413	1.596	0
1790	19418	1.597	0
1790	19428	1.598	0
1790	19477	1.601	0
1790	19482	1.602	0
1790	19495	1.603	0
1790	19541	1.606	0
1790	19543	1.607	0
1790	19556	1.608	0
1790	19617	1.613	0
1790	19713	1.621	0
1790	19715	1.622	0
1790	19771	1.626	0
1790	19776	1.627	0
1790	19786	1.628	0
1790	19832	1.631	0
1790	19837	1.632	0
1790	19850	1.633	0
1790	19896	1.636	0
1790	19898	1.637	0
1790	19911	1.638	0
1790	19972	1.643	0
1790	20068	1.651	0
1790	20070	1.652	0
1790	20126	1.656	0
1790	20131	1.657	0
1790	20141	1.658	0
1790	20187	1.661	0
1790	20192	1.662	0
1790	20205	1.663	0
1790	20251	1.666	0
1790	20253	1.667	0
1790	20266	1.668	0
1790	20327	1.673	0
1790	20423	1.681	0
1790	20425	1.682	0
1790	20481	1.686	0
1790	20486	1.687	0
1790	20496	1.688	0
1790	20542	1.691	0
1790	20547	1.692	0
1790	20560	1.693	0
1790	20606	1.696	0
1790	20608	1.697	0
1790	20621	1.698	0
1790	20685	1.703	0
1790	20781	1.711	0
1790	20783	1.712	0
1790	20839	1.716	0
1790	20844	1.717	0
1790	20854	1.718	0
1790	20900	1.721	0
1790	20905	1.722	0
1790	20918	1.723	0
1790	20964	1.726	0
1790	20966	1.727	0
1790	20979	1.728	0
1790	21040	1.733	0
1790	21136	1.741	0
1790	21138	1.742	0
1790	21194	1.746	0
1790	21199	1.747	0
1790	21209	1.748	0
1790	21255	1.751	0
1790	21260	1.752	0
1790	21273	1.753	0
1790	21319	1.756	0
1790	21321	1.757	0
1790	21334	1.758	0
1790	21395	1.763	0
1790	21491	1.771	0
1790	21493	1.772	0
1790	21549	1.776	0
1790	21554	1.777	0
1790	21564	1.778	0
1790	21610	1.781	0
1790	21615	1.782	0
1790	21628	1.783	0
1790	21674	1.786	0
1790	21676	1.787	0
1790	21689	1.788	0
1790	21750	1.793	0
1790	21849	1.801	0
1790	21851	1.802	0
1790	21907	1.806	0
1790	21912	1.807	0
1790	21922	1.808	0
1790	21968	1.811	0
1790	21973	1.812	0
1790	21986	1.813	0
1790	22032	1.816	0
1790	22034	1.817	0
1790	22047	1.818	0
1790	22108	1.823	0
1790	22204	1.831	0
1790	22206	1.832	0
1790	22262	1.836	0
1790	22267	1.837	0
1790	22277	1.838	0
1790	22323	1.841	0
1790	22328	1.842	0
1790	22341	1.843	0
1790	22387	1.846	0
1790	22389	1.847	0
1790	22402	1.848	0
1790	22463	1.853	0
1790	22559	1.861	0
1790	22561	1.862	0
1790	22617	1.866	0
1790	22622	1.867	0
1790	22632	1.868	0
1790	22678	1.871	0
1790	22683	1.872	0
1790	22696	1.873	0
1790	22742	1.876	0
1790	22744	1.877	0
1790	22757	1.878	0
1790	22818	1.883	0
1790	22914	1.891	0
1790	22916	1.892	0
1790	22972	1.896	0
1790	22977	1.897	0
1790	22987	1.898	0
1790	23036	1.901	0
1790	23041	1.902	0
1790	23054	1.903	0
1790	23100	1.906	0
1790	23102	1.907	0
1790	23115	1.908	0
1790	23176	1.913	0
1790	23272	1.921	0
1790	23274	1.922	0
1790	23330	1.926	0
1790	23335	1.927	0
1790	23345	1.928	0
1790	23391	1.931	0
1790	23396	1.932	0
1790	23409	1.933	0
1790	23455	1.936	0
1790	23457	1.937	0
1790	23470	1.938	0
1790	23531	1.943	0
1790	23627	1.951	0
1790	23629	1.952	0
1790	23685	1.956	0
1790	23690	1.957	0
1790	23700	1.958	0
1790	23746	1.961	0
1790	23751	1.962	0
1790	23764	1.963	0
1790	23810	1.966	0
1790	23812	1.967	0
1790	23825	1.968	0
1790	23886	1.973	0
1790	23982	1.981	0
1790	23984	1.982	0
1790	24040	1.986	0
1790	24045	1.987	0
1790	24055	1.988	0
1790	24101	1.991	0
1790	24106	1.992	0
1790	24119	1.993	0
1790	24165	1.996	0
1790	24167	1.997	0
1790	24180	1.998	0
1790	24244	2.003	0
1790	24340	2.011	0
1790	24342	2.012	0
1790	24398	2.016	0
1790	24403	2.017	0
1790	24413	2.018	0
1790	24459	2.021	0
1790	24464	2.022	0
1790	24477	2.023	0
1790	24523	2.026	0
1790	24525	2.027	0
1790	24538	2.028	0
1790	24599	2.033	0
1790	24695	2.041	0
1790	24697	2.042	0
1790	24753	2.046	0
1790	24758	2.047	0
1790	24768	2.048	0
1790	24814	2.051	0
1790	24819	2.052	0
1790	24832	2.053	0
1790	24878	2.056	0
1790	24880	2.057	0
1790	24893	2.058	0
1790	24954	2.063	0
1790	25050	2.071	0
1790	25052	2.072	0
1790	25108	2.076	0
1790	25113	2.077	0
1790	25123	2.078	0
1790	25169	2.081	0
1790	25174	2.082	0
1790	25187	2.083	0
1790	25233	2.086	0
1790	25235	2.087	0
1790	25248	2.088	0
1790	25309	2.093	0
1790	25408	2.101	0
1790	25410	2.102	0
1790	25466	2.106	0
1790	25471	2.107	0
1790	25481	2.108	0
1790	25527	2.111	0
1790	25532	2.112	0
1790	25545	2.113	0
1790	25591	2.116	0
1790	25593	2.117	0
1790	25606	2.118	0
1790	25667	2.123	0
1790	25763	2.131	0
1790	25765	2.132	0
1790	25821	2.136	0
1790	25826	2.137	0
1790	25836	2.138	0
1790	25882	2.141	0
1790	25887	2.142	0
1790	25900	2.143	0
1790	25946	2.146	0
1790	25948	2.147	0
1790	25961	2.148	0
1790	26022	2.153	0
1790	26118	2.161	0
1790	26120	2.162	0
1790	26176	2.166	0
1790	26181	2.167	0
1790	26191	2.168	0
1790	26237	2.171	0
1790	26242	2.172	0
1790	26255	2.173	0
1790	26301	2.176	0
1790	26303	2.177	0
1790	26316	2.178	0
1790	26377	2.183	0
1790	26473	2.191	0
1790	26475	2.192	0
1790	26531	2.196	0
1790	26536	2.197	0
1790	26546	2.198	0
1790	26595	2.201	0
1790	26600	2.202	0
1790	26613	2.203	0
1790	26659	2.206	0
1790	26661	2.207	0
1790	26674	2.208	0
1790	26735	2.213	0
1790	26831	2.221	0
1790	26833	2.222	0
1790	26889	2.226	0
1790	26894	2.227	0
1790	26904	2.228	0
1790	26950	2.231	0
1790	26955	2.232	0
1790	26968	2.233	0
1790	27014	2.236	0
1790	27016	2.237	0
1790	27029	2.238	0
1790	27090	2.243	0
1790	27186	2.251	0
1790	27188	2.252	0
1790	27244	2.256	0
1790	27249	2.257	0
1790	27259	2.258	0
1790	27305	2.261	0
1790	27310	2.262	0
1790	27323	2.263	0
1790	27369	2.266	0
1790	27371	2.267	0
1790	27384	2.268	0
1790	27445	2.273	0
1790	27541	2.281	0
1790	27543	2.282	0
1790	27599	2.286	0
1790	27604	2.287	0
1790	27614	2.288	0
1790	27660	2.291	0
1790	27665	2.292	0
1790	27678	2.293	0
1790	27724	2.296	0
1790	27726	2.297	0
1790	27739	2.298	0
1790	27803	2.303	0
1790	27899	2.311	0
1790	27901	2.312	0
1790	27957	2.316	0
1790	27962	2.317	0
1790	27972	2.318	0
1790	28018	2.321	0
1790	28023	2.322	0
1790	28036	2.323	0
1790	28082	2.326	0
1790	28084	2.327	0
1790	28097	2.328	0
1790	28158	2.333	0
1790	28254	2.341	0
1790	28256	2.342	0
1790	28312	2.346	0
1790	28317	2.347	0
1790	28327	2.348	0
1790	28373	2.351	0
1790	28378	2.352	0
1790	28391	2.353	0
1790	28437	2.356	0
1790	28439	2.357	0
1790	28452	2.358	0
1790	28513	2.363	0
1790	28609	2.371	0
1790	28611	2.372	0
1790	28667	2.376	0
1790	28672	2.377	0
1790	28682	2.378	0
1790	28728	2.381	0
1790	28733	2.382	0
1790	28746	2.383	0
1790	28792	2.386	0
1790	28794	2.387	0
1790	28807	2.388	0
1790	28868	2.393	0
1790	28967	2.401	0
1790	28969	2.402	0
1790	29025	2.406	0
1790	29030	2.407	0
1790	29040	2.408	0
1790	29086	2.411	0
1790	29091	2.412	0
1790	29104	2.413	0
1790	29150	2.416	0
1790	29152	2.417	0
1790	29165	2.418	0
1790	29226	2.423	0
1790	29322	2.431	0
1790	29324	2.432	0
1790	29380	2.436	0
1790	29385	2.437	0
1790	29395	2.438	0
1790	29441	2.441	0
1790	29446	2.442	0
1790	29459	2.443	0
1790	29505	2.446	0
1790	29507	2.447	0
1790	29520	2.448	0
1790	29581	2.453	0
1790	29677	2.461	0
1790	29679	2.462	0
1790	29735	2.466	0
1790	29740	2.467	0
1790	29750	2.468	0
1790	29796	2.471	0
1790	29801	2.472	0
1790	29814	2.473	0
1790	29860	2.476	0
1790	29862	2.477	0
1790	29875	2.478	0
1790	29936	2.483	0
1790	30032	2.491	0
1790	30034	2.492	0
1790	30090	2.496	0
1790	30095	2.497	0
1790	30105	2.498	0
1790	30154	2.501	0
1790	30159	2.502	0
1790	30172	2.503	0
1790	30218	2.506	0
1790	30220	2.507	0
1790	30233	2.508	0
1790	30294	2.513	0
1790	30390	2.521	0
1790	30392	2.522	0
1790	30448	2.526	0
1790	30453	2.527	0
1790	30463	2.528	0
1790	30509	2.531	0
1790	30514	2.532	0
1790	30527	2.533	0
1790	30573	2.536	0
1790	30575	2.537	0
1790	30588	2.538	0
1790	30649	2.543	0
1790	30745	2.551	0
1790	30747	2.552	0
1790	30803	2.556	0
1790	30808	2.557	0
1790	30818	2.558	0
1790	30864	2.561	0
1790	30869	2.562	0
1790	30882	2.563	0
1790	30928	2.566	0
1790	30930	2.567	0
1790	30943	2.568	0
1790	31004	2.573	0
1790	31100	2.581	0
1790	31102	2.582	0
1790	31158	2.586	0
1790	31163	2.587	0
1790	31173	2.588	0
1790	31219	2.591	0
1790	31224	2.592	0
1790	31237	2.593	0
1790	31283	2.596	0
1790	31285	2.597	0
1790	31298	2.598	0
1790	31362	2.603	0
1790	31458	2.611	0
1790	31460	2.612	0
1790	31516	2.616	0
1790	31521	2.617	0
1790	31531	2.618	0
1790	31577	2.621	0
1790	31582	2.622	0
1790	31595	2.623	0
1790	31641	2.626	0
1790	31643	2.627	0
1790	31656	2.628	0
1790	31717	2.633	0
1790	31813	2.641	0
1790	31815	2.642	0
1790	31871	2.646	0
1790	31876	2.647	0
1790	31886	2.648	0
1790	31932	2.651	0
1790	31937	2.652	0
1790	31950	2.653	0
1790	31996	2.656	0
1790	31998	2.657	0
1790	32011	2.658	0
1790	32072	2.663	0
1790	32168	2.671	0
1790	32170	2.672	0
1790	32226	2.676	0
1790	32231	2.677	0
1790	32241	2.678	0
1790	32287	2.681	0
1790	32292	2.682	0
1790	32305	2.683	0
1790	32351	2.686	0
1790	32353	2.687	0
1790	32366	2.688	0
1790	32427	2.693	0
1790	32526	2.701	0
1790	32528	2.702	0
1790	32584	2.706	0
1790	32589	2.707	0
1790	32599	2.708	0
1790	32645	2.711	0
1790	32650	2.712	0
1790	32663	2.713	0
1790	32709	2.716	0
1790	32711	2.717	0
1790	32724	2.718	0
1790	32785	2.723	0
1790	32881	2.731	0
1790	32883	2.732	0
1790	32939	2.736	0
1790	32944	2.737	0
1790	32954	2.738	0
1790	33000	2.741	0
1790	33005	2.742	0
1790	33018	2.743	0
1790	33064	2.746	0
1790	33066	2.747	0
1790	33079	2.748	0
1790	33140	2.753	0
1790	33236	2.761	0
1790	33238	2.762	0
1790	33294	2.766	0
1790	33299	2.767	0
1790	33309	2.768	0
1790	33355	2.771	0
1790	33360	2.772	0
1790	33373	2.773	0
1790	33419	2.776	0
1790	33421	2.777	0
1790	33434	2.778	0
1790	33495	2.783	0
1790	33591	2.791	0
1790	33593	2.792	0
1790	33649	2.796	0
1790	33654	2.797	0
1790	33664	2.798	0
1790	33713	2.801	0
1790	33718	2.802	0
1790	33731	2.803	0
1790	33777	2.806	0
1790	33779	2.807	0
1790	33792	2.808	0
1790	33853	2.813	0
1790	33949	2.821	0
1790	33951	2.822	0
1790	34007	2.826	0
1790	34012	2.827	0
1790	34022	2.828	0
1790	34068	2.831	0
1790	34073	2.832	0
1790	34086	2.833	0
1790	34132	2.836	0
1790	34134	2.837	0
1790	34147	2.838	0
1790	34208	2.843	0
1790	34304	2.851	0
1790	34306	2.852	0
1790	34362	2.856	0
1790	34367	2.857	0
1790	34377	2.858	0
1790	34423	2.861	0
1790	34428	2.862	0
1790	34441	2.863	0
1790	34487	2.866	0
1790	34489	2.867	0
1790	34502	2.868	0
1790	34563	2.873	0
1790	34659	2.881	0
1790	34661	2.882	0
1790	34717	2.886	0
1790	34722	2.887	0
1790	34732	2.888	0
1790	34778	2.891	0
1790	34783	2.892	0
1790	34796	2.893	0
1790	34842	2.896	0
1790	34844	2.897	0
1790	34857	2.898	0
1790	34921	2.903	0
1790	35017	2.911	0
1790	35019	2.912	0
1790	35075	2.916	0
1790	35080	2.917	0
1790	35090	2.918	0
1790	35136	2.921	0
1790	35141	2.922	0
1790	35154	2.923	0
1790	35200	2.926	0
1790	35202	2.927	0
1790	35215	2.928	0
1790	35276	2.933	0
1790	35372	2.941	0
1790	35374	2.942	0
1790	35430	2.946	0
1790	35435	2.947	0
1790	35445	2.948	0
1790	35491	2.951	0
1790	35496	2.952	0
1790	35509	2.953	0
1790	35555	2.956	0
1790	35557	2.957	0
1790	35570	2.958	0
1790	35631	2.963	0
1790	35727	2.971	0
1790	35729	2.972	0
1790	35785	2.976	0
1790	35790	2.977	0
1790	35800	2.978	0
1790	35846	2.981	0
1790	35851	2.982	0
1790	35864	2.983	0
1790	35910	2.986	0
1790	35912	2.987	0
1790	35925	2.988	0
1790	35986	2.993	0
1790	36085	3.001	0
1790	36087	3.002	0
1790	36143	3.006	0
1790	36148	3.007	0
1790	36158	3.008	0
1790	36204	3.011	0
1790	36209	3.012	0
1790	36222	3.013	0
1790	36268	3.016	0
1790	36270	3.017	0
1790	36283	3.018	0
1790	36344	3.023	0
1790	36448	3.031	0
1790	36453	3.032	0
1790	36527	3.036	0
1790	36535	3.037	0
1790	36548	3.038	0
1793	595	0.033	1
1793	634	0.036	2
1793	669	0.038	3
1793	705	0.041	4
1793	740	0.043	5
1793	779	0.046	6
1793	805	0.048	7
1793	853	0.051	8
1793	876	0.053	9
1793	927	0.056	10
1793	988	0.058	11
1798	595	0.033	454
1798	634	0.036	454
1798	669	0.038	454
1798	705	0.041	454
1798	740	0.043	454
1798	779	0.046	454
1798	805	0.048	454
1798	853	0.051	454
1798	876	0.053	454
1798	927	0.056	454
1798	988	0.058	454
1803	595	0.033	1
1803	634	0.036	2
1803	669	0.038	3
1803	705	0.041	4
1803	740	0.043	5
1803	779	0.046	6
1803	805	0.048	7
1803	853	0.051	8
1803	876	0.053	9
1803	927	0.056	10
1803	988	0.058	11
1803	1397	0.096	12
1803	1466	0.101	13
1803	1538	0.106	14
1803	1710	0.121	15
1803	1768	0.126	16
1803	1829	0.131	17
1803	1893	0.136	18
1803	2065	0.151	19
1803	2123	0.156	20
1803	2184	0.161	21
1803	2248	0.166	22
1803	2420	0.181	23
1803	2478	0.186	24
1803	2539	0.191	25
1803	2603	0.196	26
1803	2873	0.211	27
1803	2931	0.216	28
1803	2992	0.221	29
1803	3056	0.226	30
1803	3228	0.241	31
1803	3286	0.246	32
1803	3347	0.251	33
1803	3411	0.256	34
1803	3678	0.271	35
1803	3736	0.276	36
1803	3797	0.281	37
1803	3861	0.286	38
1803	4036	0.301	39
1803	4094	0.306	40
1803	4155	0.311	41
1803	4219	0.316	42
1803	4391	0.331	43
1803	4449	0.336	44
1803	4510	0.341	45
1803	4574	0.346	46
1803	4746	0.361	47
1803	4804	0.366	48
1803	4865	0.371	49
1803	4929	0.376	50
1803	5101	0.391	51
1803	5159	0.396	52
1803	5223	0.401	53
1803	5287	0.406	54
1803	5467	0.421	55
1803	5525	0.426	56
1803	5586	0.431	57
1803	5650	0.436	58
1803	5822	0.451	59
1803	5880	0.456	60
1803	5949	0.461	61
1803	6013	0.466	62
1803	6185	0.481	63
1803	6243	0.486	64
1803	6304	0.491	65
1803	6368	0.496	66
1803	6543	0.511	67
1803	6601	0.516	68
1803	6662	0.521	69
1803	6726	0.526	70
1803	6898	0.541	71
1803	6956	0.546	72
1803	7017	0.551	73
1803	7081	0.556	74
1803	7253	0.571	75
1803	7311	0.576	76
1803	7372	0.581	77
1803	7436	0.586	78
1803	7611	0.601	79
1803	7669	0.606	80
1803	7730	0.611	81
1803	7794	0.616	82
1803	7966	0.631	83
1803	8024	0.636	84
1803	8085	0.641	85
1803	8149	0.646	86
1803	8321	0.661	87
1803	8379	0.666	88
1803	8440	0.671	89
1803	8504	0.676	90
1803	8676	0.691	91
1803	8734	0.696	92
1803	8798	0.701	93
1803	8862	0.706	94
1803	9034	0.721	95
1803	9092	0.726	96
1803	9153	0.731	97
1803	9217	0.736	98
1803	9389	0.751	99
1803	9447	0.756	100
1803	9508	0.761	101
1803	9572	0.766	102
1803	9744	0.781	103
1803	9802	0.786	104
1803	9863	0.791	105
1803	9927	0.796	106
1803	10102	0.811	107
1803	10160	0.816	108
1803	10221	0.821	109
1803	10285	0.826	110
1803	10457	0.841	111
1803	10515	0.846	112
1803	10576	0.851	113
1803	10640	0.856	114
1803	10812	0.871	115
1803	10870	0.876	116
1803	10931	0.881	117
1803	10995	0.886	118
1803	11170	0.901	119
1803	11228	0.906	120
1803	11289	0.911	121
1803	11353	0.916	122
1803	11525	0.931	123
1803	11583	0.936	124
1803	11644	0.941	125
1803	11708	0.946	126
1803	11880	0.961	127
1803	11938	0.966	128
1803	11999	0.971	129
1803	12063	0.976	130
1803	12235	0.991	131
1803	12293	0.996	132
1803	12357	1.001	133
1803	12421	1.006	134
1803	12593	1.021	135
1803	12651	1.026	136
1803	12712	1.031	137
1803	12776	1.036	138
1803	12948	1.051	139
1803	13006	1.056	140
1803	13067	1.061	141
1803	13131	1.066	142
1803	13303	1.081	143
1803	13361	1.086	144
1803	13422	1.091	145
1803	13486	1.096	146
1803	13661	1.111	147
1803	13719	1.116	148
1803	13780	1.121	149
1803	13844	1.126	150
1803	14016	1.141	151
1803	14074	1.146	152
1803	14135	1.151	153
1803	14199	1.156	154
1803	14371	1.171	155
1803	14429	1.176	156
1803	14490	1.181	157
1803	14554	1.186	158
1803	14729	1.201	159
1803	14787	1.206	160
1803	14849	1.211	161
1803	14913	1.216	162
1803	15085	1.231	163
1803	15143	1.236	164
1803	15204	1.241	165
1803	15268	1.246	166
1803	15441	1.261	167
1803	15499	1.266	168
1803	15560	1.271	169
1803	15624	1.276	170
1803	15796	1.291	171
1803	15854	1.296	172
1803	15918	1.301	173
1803	15982	1.306	174
1803	16154	1.321	175
1803	16212	1.326	176
1803	16273	1.331	177
1803	16337	1.336	178
1803	16509	1.351	179
1803	16567	1.356	180
1803	16628	1.361	181
1803	16692	1.366	182
1803	16864	1.381	183
1803	16922	1.386	184
1803	16983	1.391	185
1803	17047	1.396	186
1803	17222	1.411	187
1803	17280	1.416	188
1803	17341	1.421	189
1803	17405	1.426	190
1803	17577	1.441	191
1803	17635	1.446	192
1803	17696	1.451	193
1803	17760	1.456	194
1803	17932	1.471	195
1803	17990	1.476	196
1803	18051	1.481	197
1803	18115	1.486	198
1803	18290	1.501	199
1803	18348	1.506	200
1803	18409	1.511	201
1803	18473	1.516	202
1803	18645	1.531	203
1803	18703	1.536	204
1803	18764	1.541	205
1803	18828	1.546	206
1803	19000	1.561	207
1803	19058	1.566	208
1803	19119	1.571	209
1803	19183	1.576	210
1803	19355	1.591	211
1803	19413	1.596	212
1803	19477	1.601	213
1803	19541	1.606	214
1803	19713	1.621	215
1803	19771	1.626	216
1803	19832	1.631	217
1803	19896	1.636	218
1803	20068	1.651	219
1803	20126	1.656	220
1803	20187	1.661	221
1803	20251	1.666	222
1803	20423	1.681	223
1803	20481	1.686	224
1803	20542	1.691	225
1803	20606	1.696	226
1803	20781	1.711	227
1803	20839	1.716	228
1803	20900	1.721	229
1803	20964	1.726	230
1803	21136	1.741	231
1803	21194	1.746	232
1803	21255	1.751	233
1803	21319	1.756	234
1803	21491	1.771	235
1803	21549	1.776	236
1803	21610	1.781	237
1803	21674	1.786	238
1803	21849	1.801	239
1803	21907	1.806	240
1803	21968	1.811	241
1803	22032	1.816	242
1803	22204	1.831	243
1803	22262	1.836	244
1803	22323	1.841	245
1803	22387	1.846	246
1803	22559	1.861	247
1803	22617	1.866	248
1803	22678	1.871	249
1803	22742	1.876	250
1803	22914	1.891	251
1803	22972	1.896	252
1803	23036	1.901	253
1803	23100	1.906	254
1803	23272	1.921	255
1803	23330	1.926	256
1803	23391	1.931	257
1803	23455	1.936	258
1803	23627	1.951	259
1803	23685	1.956	260
1803	23746	1.961	261
1803	23810	1.966	262
1803	23982	1.981	263
1803	24040	1.986	264
1803	24101	1.991	265
1803	24165	1.996	266
1803	24340	2.011	267
1803	24398	2.016	268
1803	24459	2.021	269
1803	24523	2.026	270
1803	24695	2.041	271
1803	24753	2.046	272
1803	24814	2.051	273
1803	24878	2.056	274
1803	25050	2.071	275
1803	25108	2.076	276
1803	25169	2.081	277
[...]
1996	312	0.0070001912	2
1996	2748	0.2070003824	0
1996	2748	0.2070003824	2
1996	2748	0.2070003824	4
1996	2748	0.2070003824	6
1996	2748	0.2070003824	8
1996	2748	0.2070003824	10
1996	2748	0.2070003824	12
1996	2748	0.2070003824	14
1996	2748	0.2070003824	16
1996	2748	0.2070003824	18
1996	2748	0.2070003824	20
1996	2748	0.2070003824	22
1996	2748	0.2070003824	24
1996	2748	0.2070003824	26
1996	2748	0.2070003824	28
1996	2748	0.2070003824	30
1996	2748	0.2070003824	32
1996	5306	0.4070008136	30
1996	5306	0.4070008136	28
1996	5306	0.4070008136	26
1996	5306	0.4070008136	24
1996	5306	0.4070008136	22
1996	5306	0.4070008136	20
1996	5306	0.4070008136	18
1996	5306	0.4070008136	16
1996	5306	0.4070008136	14
1996	5306	0.4070008136	12
1996	5306	0.4070008136	10
1996	5306	0.4070008136	8
1996	5306	0.4070008136	6
1996	5306	0.4070008136	4
1996	5306	0.4070008136	2
1996	5306	0.4070008136	0
1997	312	0.0070001912	0
1997	2748	0.2070003824	0
1997	5306	0.4070008136	0
1998	312	0.0070001912	0
1998	2748	0.2070003824	0
1998	5306	0.4070008136	0
2007	312	0.0070001912	65533
2007	2748	0.2070003824	65535
2007	5306	0.4070008136	65535
2008	62	0.0000001228	65535
2008	312	0.0070001912	65533
2008	2748	0.2070003824	65535
2008	5306	0.4070008136	65535
2011	35	0	0
2017	935	0.057	2
2017	967	0.0570001912	0
2017	967	0.0570001912	2
2017	3430	0.2570003824	0
2017	3430	0.2570003824	2
2017	3430	0.2570003824	4
2017	3430	0.2570003824	6
2017	3430	0.2570003824	8
2017	3430	0.2570003824	10
2017	3430	0.2570003824	12
2017	3430	0.2570003824	14
2017	3430	0.2570003824	16
2017	3430	0.2570003824	18
2017	3430	0.2570003824	20
2017	3430	0.2570003824	22
2017	3430	0.2570003824	24
2017	3430	0.2570003824	26
2017	3430	0.2570003824	28
2017	3430	0.2570003824	30
2017	3430	0.2570003824	32
2017	5902	0.4570008136	30
2017	5902	0.4570008136	28
2017	5902	0.4570008136	26
2017	5902	0.4570008136	24
2017	5902	0.4570008136	22
2017	5902	0.4570008136	20
2017	5902	0.4570008136	18
2017	5902	0.4570008136	16
2017	5902	0.4570008136	14
2017	5902	0.4570008136	12
2017	5902	0.4570008136	10
2017	5902	0.4570008136	8
2017	5902	0.4570008136	6
2017	5902	0.4570008136	4
2017	5902	0.4570008136	2
2017	5902	0.4570008136	0
2018	935	0.057	2
2018	967	0.0570001912	0
2018	967	0.0570001912	2
2018	3430	0.2570003824	0
2018	3430	0.2570003824	2
2018	3430	0.2570003824	4
2018	3430	0.2570003824	6
2018	3430	0.2570003824	8
2018	3430	0.2570003824	10
2018	3430	0.2570003824	12
2018	3430	0.2570003824	14
2018	3430	0.2570003824	16
2018	3430	0.2570003824	18
2018	3430	0.2570003824	20
2018	3430	0.2570003824	22
2018	3430	0.2570003824	24
2018	3430	0.2570003824	26
2018	3430	0.2570003824	28
2018	3430	0.2570003824	30
2018	3430	0.2570003824	32
2018	5902	0.4570008136	30
2018	5902	0.4570008136	28
2018	5902	0.4570008136	26
2018	5902	0.4570008136	24
2018	5902	0.4570008136	22
2018	5902	0.4570008136	20
2018	5902	0.4570008136	18
2018	5902	0.4570008136	16
2018	5902	0.4570008136	14
2018	5902	0.4570008136	12
2018	5902	0.4570008136	10
2018	5902	0.4570008136	8
2018	5902	0.4570008136	6
2018	5902	0.4570008136	4
2018	5902	0.4570008136	2
2018	5902	0.4570008136	0
2019	967	0.0570001912	0
2019	3430	0.2570003824	0
2019	5902	0.4570008136	0
2020	967	0.0570001912	0
2020	3430	0.2570003824	0
2020	5902	0.4570008136	0
2029	967	0.0570001912	65533
2029	3430	0.2570003824	65535
2029	5902	0.4570008136	65535
2030	61	0.0000001228	65535
2030	967	0.0570001912	65533
2030	3430	0.2570003824	65535
2030	5902	0.4570008136	65535
2033	40	0	0
2034	955	0.0570000972	65533
2034	3423	0.2570002884	65535
2034	5895	0.4570007196	65535
2038	955	0.0570000972	2
2038	958	0.0570000972	2
2038	976	0.0570002884	2
2038	3423	0.2570002884	0
2038	3454	0.2570007196	32
2038	3455	0.2570007196	0
2038	3456	0.2570007196	0
2038	3457	0.2570007196	0
2038	3458	0.2570007196	0
2038	3459	0.2570007196	0
2038	3460	0.2570007196	0
2038	3461	0.2570007196	0
2038	3462	0.2570007196	0
2038	3463	0.2570007196	0
2038	3464	0.2570007196	0
2038	3465	0.2570007196	0
2038	3466	0.2570007196	0
2038	3467	0.2570007196	0
2038	3468	0.2570007196	0
2038	3469	0.2570007196	0
2038	5895	0.4570007196	0
2043	955	0.0570000972	0
2043	3423	0.2570002884	0
2043	5895	0.4570007196	0
2044	955	0.0570000972	0
2044	3423	0.2570002884	0
2044	5895	0.4570007196	0
2045	955	0.0570000972	0
2045	3423	0.2570002884	0
2045	5895	0.4570007196	0
2046	955	0.0570000972	0
2046	3423	0.2570002884	0
2046	5895	0.4570007196	0
2047	955	0.0570000972	0
2047	3423	0.2570002884	0
2047	5895	0.4570007196	0
2048	955	0.0570000972	0
2048	3423	0.2570002884	0
2048	5895	0.4570007196	0
2049	955	0.0570000972	0
2049	3423	0.2570002884	0
2049	5895	0.4570007196	0
2050	955	0.0570000972	16
2050	3423	0.2570002884	16
2050	5895	0.4570007196	16
2052	75	0.0000003096	65535
2054	958	0.0570000972	9.72e-08
2054	976	0.0570002884	9.72e-08
2054	3454	0.2570007196	3.372e-07
2054	3454	0.2570007196	3.372e-07
2054	3454	0.2570007196	3.372e-07
2054	3454	0.2570007196	3.372e-07
2054	3454	0.2570007196	3.372e-07
2054	3454	0.2570007196	3.372e-07
2054	3454	0.2570007196	3.372e-07
2054	3454	0.2570007196	3.372e-07
2054	3454	0.2570007196	3.372e-07
2054	3454	0.2570007196	3.372e-07
2054	3454	0.2570007196	3.372e-07
2054	3454	0.2570007196	3.372e-07
2054	3454	0.2570007196	3.372e-07
2054	3454	0.2570007196	3.372e-07
2054	3454	0.2570007196	3.372e-07
2054	3454	0.2570007196	3.372e-07
2055	43	0	0
2056	147	0.0000006304	3
2056	214	0.0000008564	1
2057	214	0.0000008564	2.26e-07
2058	147	0.0000006304	65535
2059	147	0.0000006304	8940
2060	147	0.0000006304	0.3725
2062	955	0.0570000972	2000
2062	974	0.0570002884	2001
2062	3437	0.2570007196	2002
2062	3437	0.2570007196	2003
2062	3437	0.2570007196	2004
2062	3437	0.2570007196	2005
2062	3437	0.2570007196	2006
2062	3437	0.2570007196	2007
2062	3437	0.2570007196	2008
2062	3437	0.2570007196	2009
2062	3437	0.2570007196	2010
2062	3437	0.2570007196	2011
2062	3437	0.2570007196	2012
2062	3437	0.2570007196	2013
2062	3437	0.2570007196	2014
2062	3437	0.2570007196	2015
2062	3437	0.2570007196	2016
2062	3437	0.2570007196	2017
2064	119	0.000000552	1
2064	133	0.000000596	2
2065	119	0.000000552	1
2065	133	0.000000596	2
2066	214	0.0000008564	1
2066	220	0.0000009004	2
2075	43	0	0
2083	300	0.0070000972	65533
2083	2741	0.2070002884	65535
2083	5299	0.4070007196	65535
2087	300	0.0070000972	2
2087	303	0.0070000972	2
2087	321	0.0070002884	2
2087	2741	0.2070002884	0
2087	2772	0.2070007196	32
2087	2773	0.2070007196	0
2087	2774	0.2070007196	0
2087	2775	0.2070007196	0
2087	2776	0.2070007196	0
2087	2777	0.2070007196	0
2087	2778	0.2070007196	0
2087	2779	0.2070007196	0
2087	2780	0.2070007196	0
2087	2781	0.2070007196	0
2087	2782	0.2070007196	0
2087	2783	0.2070007196	0
2087	2784	0.2070007196	0
2087	2785	0.2070007196	0
2087	2786	0.2070007196	0
2087	2787	0.2070007196	0
2087	5299	0.4070007196	0
2092	300	0.0070000972	0
2092	2741	0.2070002884	0
2092	5299	0.4070007196	0
2093	300	0.0070000972	0
2093	2741	0.2070002884	0
2093	5299	0.4070007196	0
2094	300	0.0070000972	0
2094	2741	0.2070002884	0
2094	5299	0.4070007196	0
2095	300	0.0070000972	0
2095	2741	0.2070002884	0
2095	5299	0.4070007196	0
2096	300	0.0070000972	0
2096	2741	0.2070002884	0
2096	5299	0.4070007196	0
2097	300	0.0070000972	0
2097	2741	0.2070002884	0
2097	5299	0.4070007196	0
2098	300	0.0070000972	0
2098	2741	0.2070002884	0
2098	5299	0.4070007196	0
2099	300	0.0070000972	16
2099	2741	0.2070002884	16
2099	5299	0.4070007196	16
2101	76	0.0000003096	65535
2103	303	0.0070000972	9.72e-08
2103	321	0.0070002884	9.72e-08
2103	2772	0.2070007196	3.372e-07
2103	2772	0.2070007196	3.372e-07
2103	2772	0.2070007196	3.372e-07
2103	2772	0.2070007196	3.372e-07
2103	2772	0.2070007196	3.372e-07
2103	2772	0.2070007196	3.372e-07
2103	2772	0.2070007196	3.372e-07
2103	2772	0.2070007196	3.372e-07
2103	2772	0.2070007196	3.372e-07
2103	2772	0.2070007196	3.372e-07
2103	2772	0.2070007196	3.372e-07
2103	2772	0.2070007196	3.372e-07
2103	2772	0.2070007196	3.372e-07
2103	2772	0.2070007196	3.372e-07
2103	2772	0.2070007196	3.372e-07
2103	2772	0.2070007196	3.372e-07
2104	44	0	0
2105	148	0.0000006304	3
2105	213	0.0000008564	1
2106	213	0.0000008564	2.26e-07
2107	148	0.0000006304	65535
2108	148	0.0000006304	8940
2109	148	0.0000006304	0.3725
2111	300	0.0070000972	2000
2111	319	0.0070002884	2001
2111	2755	0.2070007196	2002
2111	2755	0.2070007196	2003
2111	2755	0.2070007196	2004
2111	2755	0.2070007196	2005
2111	2755	0.2070007196	2006
2111	2755	0.2070007196	2007
2111	2755	0.2070007196	2008
2111	2755	0.2070007196	2009
2111	2755	0.2070007196	2010
2111	2755	0.2070007196	2011
2111	2755	0.2070007196	2012
2111	2755	0.2070007196	2013
2111	2755	0.2070007196	2014
2111	2755	0.2070007196	2015
2111	2755	0.2070007196	2016
2111	2755	0.2070007196	2017
2113	120	0.000000552	1
2113	134	0.000000596	2
2114	120	0.000000552	1
2114	134	0.000000596	2
2115	213	0.0000008564	1
2115	219	0.0000009004	2
2124	44	0	0
2153	61	0.0000001228	0
2154	89	0.000000458	3
2156	89	0.000000458	65535
2157	89	0.000000458	8940
2158	89	0.000000458	0.3725
2161	89	0.000000458	1
2169	967	0.0570001912	0
2169	3430	0.2570003824	0
2169	5902	0.4570008136	0
2170	967	0.0570001912	0
2170	3430	0.2570003824	0
2170	5902	0.4570008136	0
2171	967	0.0570001912	0
2171	3430	0.2570003824	0
2171	5902	0.4570008136	0
2173	61	0.0000001228	0
2181	89	0.000000458	3
2183	89	0.000000458	65535
2184	89	0.000000458	8940
2185	89	0.000000458	0.3725
2188	89	0.000000458	1
2196	967	0.0570001912	0
2196	3430	0.2570003824	0
2196	5902	0.4570008136	0
2197	967	0.0570001912	0
2197	3430	0.2570003824	0
2197	5902	0.4570008136	0
2198	967	0.0570001912	0
2198	3430	0.2570003824	0
2198	5902	0.4570008136	0
2200	61	0.0000001228	0
2208	89	0.000000458	3
2208	168	0.0000006744	1
2208	967	0.0570001912	1
2208	3430	0.2570003824	1
2208	5902	0.4570008136	1
2209	168	0.0000006744	2.164e-07
2209	967	0.0570001912	1.912e-07
2209	3430	0.2570003824	0.2000001912
2209	5902	0.4570008136	0.2000004312
2210	89	0.000000458	65535
2210	15403	1.2570003824	65535
2211	89	0.000000458	8940
2211	15403	1.2570003824	8940
2212	89	0.000000458	0.3725
2212	15403	1.2570003824	23.84
2213	935	0.057	2000
2213	967	0.0570001912	2001
2213	3430	0.2570003824	2002
2213	3430	0.2570003824	2003
2213	3430	0.2570003824	2004
2213	3430	0.2570003824	2005
2213	3430	0.2570003824	2006
2213	3430	0.2570003824	2007
2213	3430	0.2570003824	2008
2213	3430	0.2570003824	2009
2213	3430	0.2570003824	2010
2213	3430	0.2570003824	2011
2213	3430	0.2570003824	2012
2213	3430	0.2570003824	2013
2213	3430	0.2570003824	2014
2213	3430	0.2570003824	2015
2213	3430	0.2570003824	2016
2213	3430	0.2570003824	2017
2216	186	0.0000007624	1
2216	200	0.0000008064	2
2217	186	0.0000007624	1
2217	200	0.0000008064	2
2218	168	0.0000006744	1
2218	178	0.0000007184	2
2219	935	0.057	2
2219	967	0.0570001912	0
2219	967	0.0570001912	2
2219	3430	0.2570003824	0
2219	3430	0.2570003824	2
2219	3430	0.2570003824	4
2219	3430	0.2570003824	6
2219	3430	0.2570003824	8
2219	3430	0.2570003824	10
2219	3430	0.2570003824	12
2219	3430	0.2570003824	14
2219	3430	0.2570003824	16
2219	3430	0.2570003824	18
2219	3430	0.2570003824	20
2219	3430	0.2570003824	22
2219	3430	0.2570003824	24
2219	3430	0.2570003824	26
2219	3430	0.2570003824	28
2219	3430	0.2570003824	30
2219	3430	0.2570003824	32
2219	5902	0.4570008136	30
2219	5902	0.4570008136	28
2219	5902	0.4570008136	26
2219	5902	0.4570008136	24
2219	5902	0.4570008136	22
2219	5902	0.4570008136	20
2219	5902	0.4570008136	18
2219	5902	0.4570008136	16
2219	5902	0.4570008136	14
2219	5902	0.4570008136	12
2219	5902	0.4570008136	10
2219	5902	0.4570008136	8
2219	5902	0.4570008136	6
2219	5902	0.4570008136	4
2219	5902	0.4570008136	2
2219	5902	0.4570008136	0
2220	935	0.057	2
2220	967	0.0570001912	0
2220	967	0.0570001912	2
2220	3430	0.2570003824	0
2220	3430	0.2570003824	2
2220	3430	0.2570003824	4
2220	3430	0.2570003824	6
2220	3430	0.2570003824	8
2220	3430	0.2570003824	10
2220	3430	0.2570003824	12
2220	3430	0.2570003824	14
2220	3430	0.2570003824	16
2220	3430	0.2570003824	18
2220	3430	0.2570003824	20
2220	3430	0.2570003824	22
2220	3430	0.2570003824	24
2220	3430	0.2570003824	26
2220	3430	0.2570003824	28
2220	3430	0.2570003824	30
2220	3430	0.2570003824	32
2220	5902	0.4570008136	30
2220	5902	0.4570008136	28
2220	5902	0.4570008136	26
2220	5902	0.4570008136	24
2220	5902	0.4570008136	22
2220	5902	0.4570008136	20
2220	5902	0.4570008136	18
2220	5902	0.4570008136	16
2220	5902	0.4570008136	14
2220	5902	0.4570008136	12
2220	5902	0.4570008136	10
2220	5902	0.4570008136	8
2220	5902	0.4570008136	6
2220	5902	0.4570008136	4
2220	5902	0.4570008136	2
2220	5902	0.4570008136	0
2223	967	0.0570001912	0
2223	3430	0.2570003824	0
2223	5902	0.4570008136	0
2224	967	0.0570001912	0
2224	3430	0.2570003824	0
2224	5902	0.4570008136	0
2225	967	0.0570001912	0
2225	3430	0.2570003824	0
2225	5902	0.4570008136	0
2226	967	0.0570001912	0
2226	3430	0.2570003824	0
2226	5902	0.4570008136	0
2227	61	0.0000001228	0
2230	967	0.0570001912	2000
2230	3430	0.2570003824	2001
2230	5902	0.4570008136	2017
2232	967	0.0570001912	0
2232	3430	0.2570003824	0
2232	5902	0.4570008136	0
2233	967	0.0570001912	0
2233	3430	0.2570003824	0
2233	5902	0.4570008136	0
2256	62	0.0000001228	0
2257	90	0.000000458	3
2259	90	0.000000458	65535
2260	90	0.000000458	8940
2261	90	0.000000458	0.3725
2264	90	0.000000458	1
2272	312	0.0070001912	0
2272	2748	0.2070003824	0
2272	5306	0.4070008136	0
2273	312	0.0070001912	0
2273	2748	0.2070003824	0
2273	5306	0.4070008136	0
2274	312	0.0070001912	0
2274	2748	0.2070003824	0
2274	5306	0.4070008136	0
2276	62	0.0000001228	0
2284	90	0.000000458	3
2286	90	0.000000458	65535
2287	90	0.000000458	8940
2288	90	0.000000458	0.3725
2291	90	0.000000458	1
2299	312	0.0070001912	0
2299	2748	0.2070003824	0
2299	5306	0.4070008136	0
2300	312	0.0070001912	0
2300	2748	0.2070003824	0
2300	5306	0.4070008136	0
2301	312	0.0070001912	0
2301	2748	0.2070003824	0
2301	5306	0.4070008136	0
2303	62	0.0000001228	0
2311	90	0.000000458	3
2311	167	0.0000006744	1
2311	312	0.0070001912	1
2311	2748	0.2070003824	1
2311	5306	0.4070008136	1
2312	167	0.0000006744	2.164e-07
2312	312	0.0070001912	1.912e-07
2312	2748	0.2070003824	0.2000001912
2312	5306	0.4070008136	0.2000004312
2313	90	0.000000458	65535
2313	14802	1.2070003824	65535
2314	90	0.000000458	8940
2314	14802	1.2070003824	8940
2315	90	0.000000458	0.3725
2315	14802	1.2070003824	23.84
2316	285	0.007	2000
2316	312	0.0070001912	2001
2316	2748	0.2070003824	2002
2316	2748	0.2070003824	2003
2316	2748	0.2070003824	2004
2316	2748	0.2070003824	2005
2316	2748	0.2070003824	2006
2316	2748	0.2070003824	2007
2316	2748	0.2070003824	2008
2316	2748	0.2070003824	2009
2316	2748	0.2070003824	2010
2316	2748	0.2070003824	2011
2316	2748	0.2070003824	2012
2316	2748	0.2070003824	2013
2316	2748	0.2070003824	2014
2316	2748	0.2070003824	2015
2316	2748	0.2070003824	2016
2316	2748	0.2070003824	2017
2319	185	0.0000007624	1
2319	199	0.0000008064	2
2320	185	0.0000007624	1
2320	199	0.0000008064	2
2321	167	0.0000006744	1
2321	177	0.0000007184	2
2322	285	0.007	2
2322	312	0.0070001912	0
2322	312	0.0070001912	2
2322	2748	0.2070003824	0
2322	2748	0.2070003824	2
2322	2748	0.2070003824	4
2322	2748	0.2070003824	6
2322	2748	0.2070003824	8
2322	2748	0.2070003824	10
2322	2748	0.2070003824	12
2322	2748	0.2070003824	14
2322	2748	0.2070003824	16
2322	2748	0.2070003824	18
2322	2748	0.2070003824	20
2322	2748	0.2070003824	22
2322	2748	0.2070003824	24
2322	2748	0.2070003824	26
2322	2748	0.2070003824	28
2322	2748	0.2070003824	30
2322	2748	0.2070003824	32
2322	5306	0.4070008136	30
2322	5306	0.4070008136	28
2322	5306	0.4070008136	26
2322	5306	0.4070008136	24
2322	5306	0.4070008136	22
2322	5306	0.4070008136	20
2322	5306	0.4070008136	18
2322	5306	0.4070008136	16
2322	5306	0.4070008136	14
2322	5306	0.4070008136	12
2322	5306	0.4070008136	10
2322	5306	0.4070008136	8
2322	5306	0.4070008136	6
2322	5306	0.4070008136	4
2322	5306	0.4070008136	2
2322	5306	0.4070008136	0
2323	285	0.007	2
2323	312	0.0070001912	0
2323	312	0.0070001912	2
2323	2748	0.2070003824	0
2323	2748	0.2070003824	2
2323	2748	0.2070003824	4
2323	2748	0.2070003824	6
2323	2748	0.2070003824	8
2323	2748	0.2070003824	10
2323	2748	0.2070003824	12
2323	2748	0.2070003824	14
2323	2748	0.2070003824	16
2323	2748	0.2070003824	18
2323	2748	0.2070003824	20
2323	2748	0.2070003824	22
2323	2748	0.2070003824	24
2323	2748	0.2070003824	26
2323	2748	0.2070003824	28
2323	2748	0.2070003824	30
2323	2748	0.2070003824	32
2323	5306	0.4070008136	30
2323	5306	0.4070008136	28
2323	5306	0.4070008136	26
2323	5306	0.4070008136	24
2323	5306	0.4070008136	22
2323	5306	0.4070008136	20
2323	5306	0.4070008136	18
2323	5306	0.4070008136	16
2323	5306	0.4070008136	14
2323	5306	0.4070008136	12
2323	5306	0.4070008136	10
2323	5306	0.4070008136	8
2323	5306	0.4070008136	6
2323	5306	0.4070008136	4
2323	5306	0.4070008136	2
2323	5306	0.4070008136	0
2326	312	0.0070001912	0
2326	2748	0.2070003824	0
2326	5306	0.4070008136	0
2327	312	0.0070001912	0
2327	2748	0.2070003824	0
2327	5306	0.4070008136	0
2328	312	0.0070001912	0
2328	2748	0.2070003824	0
2328	5306	0.4070008136	0
2329	312	0.0070001912	0
2329	2748	0.2070003824	0
2329	5306	0.4070008136	0
2330	62	0.0000001228	0
2333	312	0.0070001912	2000
2333	2748	0.2070003824	2001
2333	5306	0.4070008136	2017
2335	312	0.0070001912	0
2335	2748	0.2070003824	0
2335	5306	0.4070008136	0
2336	312	0.0070001912	0
2336	2748	0.2070003824	0
2336	5306	0.4070008136	0
2338	147	0.0000006304	3
2340	147	0.0000006304	65535
2341	147	0.0000006304	8940
2342	147	0.0000006304	0.3725
2345	147	0.0000006304	1
2357	75	0.0000003096	0
2365	147	0.0000006304	3
2367	147	0.0000006304	65535
2368	147	0.0000006304	8940
2369	147	0.0000006304	0.3725
2372	147	0.0000006304	1
2384	75	0.0000003096	0
2392	148	0.0000006304	3
2394	148	0.0000006304	65535
2395	148	0.0000006304	8940
2396	148	0.0000006304	0.3725
2399	148	0.0000006304	1
2411	76	0.0000003096	0
2419	148	0.0000006304	3
2421	148	0.0000006304	65535
2422	148	0.0000006304	8940
2423	148	0.0000006304	0.3725
2426	148	0.0000006304	1
2438	76	0.0000003096	0
2448	967	0.0570001912	0
2448	3430	0.2570003824	0
2448	5902	0.4570008136	0
2449	935	0.057	1
2449	935	0.057	0
2449	936	0.057	1
2449	967	0.0570001912	0
2449	1039	0.063	1
2449	1040	0.063	2
2449	1102	0.069	3
2449	1103	0.069	4
2449	1165	0.075	5
2449	1166	0.075	6
2449	1228	0.081	7
2449	1229	0.081	8
2449	1291	0.087	9
2449	1292	0.087	10
2449	1354	0.093	11
2449	1355	0.093	12
2449	1434	0.099	13
2449	1435	0.099	14
2449	1518	0.105	15
2449	1519	0.105	16
2449	3430	0.2570003824	15
2449	3430	0.2570003824	14
2449	3430	0.2570003824	13
2449	3430	0.2570003824	12
2449	3430	0.2570003824	11
2449	3430	0.2570003824	10
2449	3430	0.2570003824	9
2449	3430	0.2570003824	8
2449	3430	0.2570003824	7
2449	3430	0.2570003824	6
2449	3430	0.2570003824	5
2449	3430	0.2570003824	4
2449	3430	0.2570003824	3
2449	3430	0.2570003824	2
2449	3430	0.2570003824	1
2449	3430	0.2570003824	0
2452	312	0.0070001912	0
2452	2748	0.2070003824	0
2452	5306	0.4070008136	0
2453	285	0.007	1
2453	285	0.007	0
2453	286	0.007	1
2453	312	0.0070001912	0
2453	373	0.013	1
2453	374	0.013	2
2453	430	0.019	3
2453	431	0.019	4
2453	487	0.025	5
2453	488	0.025	6
2453	553	0.031	7
2453	554	0.031	8
2453	643	0.037	9
2453	644	0.037	10
2453	729	0.043	11
2453	730	0.043	12
2453	814	0.049	13
2453	815	0.049	14
2453	900	0.055	15
2453	901	0.055	16
2453	2748	0.2070003824	15
2453	2748	0.2070003824	14
2453	2748	0.2070003824	13
2453	2748	0.2070003824	12
2453	2748	0.2070003824	11
2453	2748	0.2070003824	10
2453	2748	0.2070003824	9
2453	2748	0.2070003824	8
2453	2748	0.2070003824	7
2453	2748	0.2070003824	6
2453	2748	0.2070003824	5
2453	2748	0.2070003824	4
2453	2748	0.2070003824	3
2453	2748	0.2070003824	2
2453	2748	0.2070003824	1
2453	2748	0.2070003824	0
2467	528	0.029794597295	7504
2467	36418	3.029794597295	7504
2468	528	0.029794597295	7504
2468	36418	3.029794597295	7504
2470	528	0.029794597295	0
2470	36418	3.029794597295	0
2481	528	0.029794597295	0
2481	36418	3.029794597295	0
2491	579	0.032546852513	7504
2491	36471	3.032546852513	7504
2492	579	0.032546852513	7504
2492	36471	3.032546852513	7504
2494	579	0.032546852513	0
2494	36471	3.032546852513	0
2505	579	0.032546852513	0
2505	36471	3.032546852513	0
2515	1371	0.094045599147	7504
2516	1371	0.094045599147	7504
2518	1371	0.094045599147	0
2529	1371	0.094045599147	0
