file 27448348 1576103099                                        
version 2
run CAIN-0-20191211-19:24:01-5974
attr configname CAIN
attr datetime 20191211-19:24:01
attr experiment CAIN
attr inifile omnetpp.ini
attr iterationvars ""
attr iterationvars2 $repetition=0
attr measurement ""
attr network lte.simulations.networks.CAIN
attr processid 5974
attr repetition 0
attr replication #0
attr resultdir results
attr runnumber 0
attr seedset 0
param **.**.amcMode "\"AUTO\""
param **.amcMode "\"D2D\""
param **.cainNetwork true
param **.channelControl.alpha 1.0
param **.channelControl.carrierFrequency 2100e+6Hz
param **.channelControl.pMax 10W
param **.d2dCqi 7
param **.deployer.numRbDl 50
param **.deployer.numRbUl 50
param **.fbDelay 1
param **.feedbackComputation "xmldoc(\"config_channel.xml\")"
param **.mobility.constraintAreaMaxX 1000m
param **.mobility.constraintAreaMaxY 1000m
param **.mobility.constraintAreaMaxZ 0m
param **.mobility.constraintAreaMinX 0m
param **.mobility.constraintAreaMinY 0m
param **.mobility.constraintAreaMinZ 0m
param **.nic.phy.channelModel "xmldoc(\"config_channel.xml\")"
param **.numBands 50
param **.pwrThresh -15
param **.rbAllocationType "\"localized\""
param **.routingRecorder.enabled false
param **.tcpApp[*].tClose -1s
param **.ueD2DTx[*].mobility.changeAngleBy "normal(0deg, 30deg)"
param **.ueD2DTx[*].mobility.changeInterval "normal(5s, 0.1s)"
param **.ueD2DTx[*].mobility.speed "normal(2mps, 0.01mps)"
param **.usePreconfiguredTxParams false
param *.eNodeB.d2dCapable false
param *.eNodeB.mobility.initFromDisplayString false
param *.eNodeB.mobility.initialX 300m
param *.eNodeB.mobility.initialY 300m
param *.eNodeB.nic.phy.enableD2DCqiReporting true
param *.eNodeB.txPower 19952.62315mw
param *.numUeCell 0
param *.numUeD2DRx 1
param *.numUeD2DTx 1
param *.ue*.macCellId 1
param *.ue*.masterId 1
param *.ue*.mobility.initFromDisplayString false
param *.ue*[0].macCellId 1
param *.ue*[0].masterId 1
param *.ue*[0].mobility.initFromDisplayString false
param *.ueD2D*.numTcpApps 1
param *.ueD2D*[*].d2dCapable true
param *.ueD2D*[0].d2dCapable false
param *.ueD2D*[0].numTcpApps 1
param *.ueD2DRx[0].mobility.initialX 310m
param *.ueD2DRx[0].mobility.initialY 350m
param *.ueD2DRx[0].tcpApp[*].localPort 1000
param *.ueD2DRx[0].tcpApp[*].typename "\"TCPSinkApp\""
param *.ueD2DTx*.tcpApp[*].connectAddress "\"ueD2DTx[0]\""
param *.ueD2DTx*.tcpApp[*].localAddress "\"ueD2DTx\""
param *.ueD2DTx*.tcpApp[*].localPort 1000
param *.ueD2DTx*.tcpApp[*].sendBytes 1GiB
param *.ueD2DTx*.tcpApp[*].typename "\"TCPSessionApp\""
param *.ueD2DTx*.tcpApp[0].active true
param *.ueD2DTx*.tcpApp[0].connectPort 1000
param *.ueD2DTx*.tcpApp[0].tOpen uniform(0.010s,0.1s)
param *.ueD2DTx*.tcpApp[0].tSend uniform(0.15s,0.5s)
param *.ueD2DTx[0].mobility.initialX 290m
param *.ueD2DTx[0].mobility.initialY 350m
param *.ueD2DTx[0].nic.d2dPeerAddresses "\"ueD2DTx[1]\""
param *.ueD2DTx[0].tcpApp[*].localPort 1000
param *.ueD2DTx[0].tcpApp[*].sendBytes 1GiB
param *.ueD2DTx[0].tcpApp[*].typename "\"TCPSessionApp\""
param *.ueD2DTx[0].tcpApp[0].active true
param *.ueD2DTx[0].tcpApp[0].connectAddress "\"ueD2DRx[0]\""
param *.ueD2DTx[0].tcpApp[0].connectPort 1000
param *.ueD2DTx[0].tcpApp[0].localAddress "\"ueD2DTx[0]\""
param *.ueD2DTx[0].tcpApp[0].tOpen uniform(0.010s,0.1s)
param *.ueD2DTx[0].tcpApp[0].tSend uniform(0.15s,0.5s)
param *.ueD2DTx[1].nic.d2dPeerAddresses "\"ueD2DTx[0]\""

vector 8  CAIN.server.ppp[0].queue  queueLength:vector  ETV
attr interpolationmode  sample-hold
attr title  "queue length, vector"
vector 9  CAIN.server.ppp[0].ppp  txState:vector  ETV
attr interpolationmode  sample-hold
attr title  "tx state, vector"
vector 24  CAIN.router.ppp[0].queue  queueLength:vector  ETV
attr interpolationmode  sample-hold
attr title  "queue length, vector"
vector 25  CAIN.router.ppp[0].ppp  txState:vector  ETV
attr interpolationmode  sample-hold
attr title  "tx state, vector"
vector 35  CAIN.router.ppp[1].queue  queueLength:vector  ETV
attr interpolationmode  sample-hold
attr title  "queue length, vector"
vector 36  CAIN.router.ppp[1].ppp  txState:vector  ETV
attr interpolationmode  sample-hold
attr title  "tx state, vector"
vector 56  CAIN.pgw.ppp[0].queue  queueLength:vector  ETV
attr interpolationmode  sample-hold
attr title  "queue length, vector"
vector 57  CAIN.pgw.ppp[0].ppp  txState:vector  ETV
attr interpolationmode  sample-hold
attr title  "tx state, vector"
vector 67  CAIN.pgw.pppInterface.queue  queueLength:vector  ETV
attr interpolationmode  sample-hold
attr title  "queue length, vector"
vector 68  CAIN.pgw.pppInterface.ppp  txState:vector  ETV
attr interpolationmode  sample-hold
attr title  "tx state, vector"
vector 102  CAIN.eNodeB.pppIf.queue  queueLength:vector  ETV
attr interpolationmode  sample-hold
attr title  "queue length, vector"
vector 103  CAIN.eNodeB.pppIf.ppp  txState:vector  ETV
attr interpolationmode  sample-hold
attr title  "tx state, vector"
vector 134  CAIN.ueD2DTx[0].nic.phy  servingCell:vector  ETV
attr source  servingCell
attr title  "ID of the serving eNodeB for the UE, vector"
attr unit  ""
vector 159  CAIN.ueD2DTx[1].nic.phy  servingCell:vector  ETV
attr source  servingCell
attr title  "ID of the serving eNodeB for the UE, vector"
attr unit  ""
vector 184  CAIN.ueD2DTx[2].nic.phy  servingCell:vector  ETV
attr source  servingCell
attr title  "ID of the serving eNodeB for the UE, vector"
attr unit  ""
vector 209  CAIN.ueD2DTx[3].nic.phy  servingCell:vector  ETV
attr source  servingCell
attr title  "ID of the serving eNodeB for the UE, vector"
attr unit  ""
vector 234  CAIN.ueD2DTx[4].nic.phy  servingCell:vector  ETV
attr source  servingCell
attr title  "ID of the serving eNodeB for the UE, vector"
attr unit  ""
vector 259  CAIN.ueD2DTx[5].nic.phy  servingCell:vector  ETV
attr source  servingCell
attr title  "ID of the serving eNodeB for the UE, vector"
attr unit  ""
vector 284  CAIN.ueD2DTx[6].nic.phy  servingCell:vector  ETV
attr source  servingCell
attr title  "ID of the serving eNodeB for the UE, vector"
attr unit  ""
vector 309  CAIN.ueD2DTx[7].nic.phy  servingCell:vector  ETV
attr source  servingCell
attr title  "ID of the serving eNodeB for the UE, vector"
attr unit  ""
vector 334  CAIN.ueD2DTx[8].nic.phy  servingCell:vector  ETV
attr source  servingCell
attr title  "ID of the serving eNodeB for the UE, vector"
attr unit  ""
vector 359  CAIN.ueD2DTx[9].nic.phy  servingCell:vector  ETV
attr source  servingCell
attr title  "ID of the serving eNodeB for the UE, vector"
attr unit  ""
vector 85  CAIN.eNodeB.nic.mac  receivedPacketFromLowerLayer:vector(packetBytes)  ETV
attr interpolationmode  none
attr source  receivedPacketFromLowerLayer
vector 377  CAIN.ueD2DTx[8].tcp  tcpRcvQueueBytes  ETV
vector 364  CAIN.ueD2DTx[8].tcp  "advertised window"  ETV
vector 363  CAIN.ueD2DTx[8].tcp  "receive window"  ETV
vector 366  CAIN.ueD2DTx[8].tcp  "sent ack"  ETV
vector 315  CAIN.ueD2DTx[8].nic.pdcpRrc  receivedPacketFromUpperLayer:vector(packetBytes)  ETV
attr interpolationmode  none
attr source  receivedPacketFromUpperLayer
vector 318  CAIN.ueD2DTx[8].nic.pdcpRrc  sentPacketToLowerLayer:vector(packetBytes)  ETV
attr interpolationmode  none
attr source  sentPacketToLowerLayer
vector 319  CAIN.ueD2DTx[8].nic.mac  receivedPacketFromUpperLayer:vector(packetBytes)  ETV
attr interpolationmode  none
attr source  receivedPacketFromUpperLayer
vector 322  CAIN.ueD2DTx[8].nic.mac  sentPacketToLowerLayer:vector(packetBytes)  ETV
attr interpolationmode  none
attr source  sentPacketToLowerLayer
vector 94  CAIN.eNodeB.nic.mac  racpkt:vector  ETV
attr interpolationmode  none
attr title  "eNB received racpkt message, vector"
vector 95  CAIN.eNodeB.nic.mac  racDistanceSignal:vector  ETV
attr interpolationmode  none
attr title  "Rac distance to enb, vector"
vector 87  CAIN.eNodeB.nic.mac  sentPacketToLowerLayer:vector(packetBytes)  ETV
attr interpolationmode  none
attr source  sentPacketToLowerLayer
vector 120  CAIN.ueD2DTx[0].nic.mac  receivedPacketFromLowerLayer:vector(packetBytes)  ETV
attr interpolationmode  none
attr source  receivedPacketFromLowerLayer
vector 129  CAIN.ueD2DTx[0].nic.mac  racpkt:vector  ETV
attr interpolationmode  none
attr title  "eNB received racpkt message, vector"
vector 130  CAIN.ueD2DTx[0].nic.mac  racDistanceSignal:vector  ETV
attr interpolationmode  none
attr title  "Rac distance to enb, vector"
vector 122  CAIN.ueD2DTx[0].nic.mac  sentPacketToLowerLayer:vector(packetBytes)  ETV
attr interpolationmode  none
attr source  sentPacketToLowerLayer
vector 320  CAIN.ueD2DTx[8].nic.mac  receivedPacketFromLowerLayer:vector(packetBytes)  ETV
attr interpolationmode  none
attr source  receivedPacketFromLowerLayer
vector 220  CAIN.ueD2DTx[4].nic.mac  receivedPacketFromLowerLayer:vector(packetBytes)  ETV
attr interpolationmode  none
attr source  receivedPacketFromLowerLayer
vector 229  CAIN.ueD2DTx[4].nic.mac  racpkt:vector  ETV
attr interpolationmode  none
attr title  "eNB received racpkt message, vector"
vector 230  CAIN.ueD2DTx[4].nic.mac  racDistanceSignal:vector  ETV
attr interpolationmode  none
attr title  "Rac distance to enb, vector"
vector 222  CAIN.ueD2DTx[4].nic.mac  sentPacketToLowerLayer:vector(packetBytes)  ETV
attr interpolationmode  none
attr source  sentPacketToLowerLayer
vector 245  CAIN.ueD2DTx[5].nic.mac  receivedPacketFromLowerLayer:vector(packetBytes)  ETV
attr interpolationmode  none
attr source  receivedPacketFromLowerLayer
vector 254  CAIN.ueD2DTx[5].nic.mac  racpkt:vector  ETV
attr interpolationmode  none
attr title  "eNB received racpkt message, vector"
vector 255  CAIN.ueD2DTx[5].nic.mac  racDistanceSignal:vector  ETV
attr interpolationmode  none
attr title  "Rac distance to enb, vector"
vector 247  CAIN.ueD2DTx[5].nic.mac  sentPacketToLowerLayer:vector(packetBytes)  ETV
attr interpolationmode  none
attr source  sentPacketToLowerLayer
vector 321  CAIN.ueD2DTx[8].nic.mac  sentPacketToUpperLayer:vector(packetBytes)  ETV
attr interpolationmode  none
attr source  sentPacketToUpperLayer
vector 195  CAIN.ueD2DTx[3].nic.mac  receivedPacketFromLowerLayer:vector(packetBytes)  ETV
attr interpolationmode  none
attr source  receivedPacketFromLowerLayer
vector 204  CAIN.ueD2DTx[3].nic.mac  racpkt:vector  ETV
attr interpolationmode  none
attr title  "eNB received racpkt message, vector"
vector 205  CAIN.ueD2DTx[3].nic.mac  racDistanceSignal:vector  ETV
attr interpolationmode  none
attr title  "Rac distance to enb, vector"
vector 197  CAIN.ueD2DTx[3].nic.mac  sentPacketToLowerLayer:vector(packetBytes)  ETV
attr interpolationmode  none
attr source  sentPacketToLowerLayer
vector 145  CAIN.ueD2DTx[1].nic.mac  receivedPacketFromLowerLayer:vector(packetBytes)  ETV
attr interpolationmode  none
attr source  receivedPacketFromLowerLayer
vector 154  CAIN.ueD2DTx[1].nic.mac  racpkt:vector  ETV
attr interpolationmode  none
attr title  "eNB received racpkt message, vector"
vector 155  CAIN.ueD2DTx[1].nic.mac  racDistanceSignal:vector  ETV
attr interpolationmode  none
attr title  "Rac distance to enb, vector"
vector 147  CAIN.ueD2DTx[1].nic.mac  sentPacketToLowerLayer:vector(packetBytes)  ETV
attr interpolationmode  none
attr source  sentPacketToLowerLayer
vector 170  CAIN.ueD2DTx[2].nic.mac  receivedPacketFromLowerLayer:vector(packetBytes)  ETV
attr interpolationmode  none
attr source  receivedPacketFromLowerLayer
vector 179  CAIN.ueD2DTx[2].nic.mac  racpkt:vector  ETV
attr interpolationmode  none
attr title  "eNB received racpkt message, vector"
vector 180  CAIN.ueD2DTx[2].nic.mac  racDistanceSignal:vector  ETV
attr interpolationmode  none
attr title  "Rac distance to enb, vector"
vector 172  CAIN.ueD2DTx[2].nic.mac  sentPacketToLowerLayer:vector(packetBytes)  ETV
attr interpolationmode  none
attr source  sentPacketToLowerLayer
vector 345  CAIN.ueD2DTx[9].nic.mac  receivedPacketFromLowerLayer:vector(packetBytes)  ETV
attr interpolationmode  none
attr source  receivedPacketFromLowerLayer
vector 354  CAIN.ueD2DTx[9].nic.mac  racpkt:vector  ETV
attr interpolationmode  none
attr title  "eNB received racpkt message, vector"
vector 355  CAIN.ueD2DTx[9].nic.mac  racDistanceSignal:vector  ETV
attr interpolationmode  none
attr title  "Rac distance to enb, vector"
vector 347  CAIN.ueD2DTx[9].nic.mac  sentPacketToLowerLayer:vector(packetBytes)  ETV
attr interpolationmode  none
attr source  sentPacketToLowerLayer
vector 270  CAIN.ueD2DTx[6].nic.mac  receivedPacketFromLowerLayer:vector(packetBytes)  ETV
attr interpolationmode  none
attr source  receivedPacketFromLowerLayer
vector 279  CAIN.ueD2DTx[6].nic.mac  racpkt:vector  ETV
attr interpolationmode  none
attr title  "eNB received racpkt message, vector"
vector 280  CAIN.ueD2DTx[6].nic.mac  racDistanceSignal:vector  ETV
attr interpolationmode  none
attr title  "Rac distance to enb, vector"
vector 272  CAIN.ueD2DTx[6].nic.mac  sentPacketToLowerLayer:vector(packetBytes)  ETV
attr interpolationmode  none
attr source  sentPacketToLowerLayer
vector 295  CAIN.ueD2DTx[7].nic.mac  receivedPacketFromLowerLayer:vector(packetBytes)  ETV
attr interpolationmode  none
attr source  receivedPacketFromLowerLayer
vector 304  CAIN.ueD2DTx[7].nic.mac  racpkt:vector  ETV
attr interpolationmode  none
attr title  "eNB received racpkt message, vector"
vector 305  CAIN.ueD2DTx[7].nic.mac  racDistanceSignal:vector  ETV
attr interpolationmode  none
attr title  "Rac distance to enb, vector"
vector 297  CAIN.ueD2DTx[7].nic.mac  sentPacketToLowerLayer:vector(packetBytes)  ETV
attr interpolationmode  none
attr source  sentPacketToLowerLayer
vector 329  CAIN.ueD2DTx[8].nic.mac  racpkt:vector  ETV
attr interpolationmode  none
attr title  "eNB received racpkt message, vector"
vector 330  CAIN.ueD2DTx[8].nic.mac  racDistanceSignal:vector  ETV
attr interpolationmode  none
attr title  "Rac distance to enb, vector"
vector 91  CAIN.eNodeB.nic.mac  ServedDevs:vector  ETV
attr interpolationmode  none
attr title  "# of devices served, vector"
vector 90  CAIN.eNodeB.nic.mac  DistanceSignal:vector  ETV
attr interpolationmode  none
attr title  "Distance to enb, vector"
vector 89  CAIN.eNodeB.nic.mac  CainMessage:vector  ETV
attr interpolationmode  none
attr title  "eNB received CAIN message, vector"
vector 401  CAIN.ueD2DTx[3].tcp  tcpRcvQueueBytes  ETV
vector 388  CAIN.ueD2DTx[3].tcp  "advertised window"  ETV
vector 387  CAIN.ueD2DTx[3].tcp  "receive window"  ETV
vector 390  CAIN.ueD2DTx[3].tcp  "sent ack"  ETV
vector 190  CAIN.ueD2DTx[3].nic.pdcpRrc  receivedPacketFromUpperLayer:vector(packetBytes)  ETV
attr interpolationmode  none
attr source  receivedPacketFromUpperLayer
vector 193  CAIN.ueD2DTx[3].nic.pdcpRrc  sentPacketToLowerLayer:vector(packetBytes)  ETV
attr interpolationmode  none
attr source  sentPacketToLowerLayer
vector 194  CAIN.ueD2DTx[3].nic.mac  receivedPacketFromUpperLayer:vector(packetBytes)  ETV
attr interpolationmode  none
attr source  receivedPacketFromUpperLayer
vector 93  CAIN.eNodeB.nic.mac  HopDistanceSignal:vector  ETV
attr interpolationmode  none
attr title  "Distance to enb with hop forwarding, vector"
vector 92  CAIN.eNodeB.nic.mac  CainHopMessage:vector  ETV
attr interpolationmode  none
attr title  "eNB received CAIN hop message, vector"
vector 425  CAIN.ueD2DTx[4].tcp  tcpRcvQueueBytes  ETV
vector 412  CAIN.ueD2DTx[4].tcp  "advertised window"  ETV
vector 411  CAIN.ueD2DTx[4].tcp  "receive window"  ETV
vector 414  CAIN.ueD2DTx[4].tcp  "sent ack"  ETV
vector 215  CAIN.ueD2DTx[4].nic.pdcpRrc  receivedPacketFromUpperLayer:vector(packetBytes)  ETV
attr interpolationmode  none
attr source  receivedPacketFromUpperLayer
vector 218  CAIN.ueD2DTx[4].nic.pdcpRrc  sentPacketToLowerLayer:vector(packetBytes)  ETV
attr interpolationmode  none
attr source  sentPacketToLowerLayer
vector 219  CAIN.ueD2DTx[4].nic.mac  receivedPacketFromUpperLayer:vector(packetBytes)  ETV
attr interpolationmode  none
attr source  receivedPacketFromUpperLayer
vector 449  CAIN.ueD2DTx[9].tcp  tcpRcvQueueBytes  ETV
vector 436  CAIN.ueD2DTx[9].tcp  "advertised window"  ETV
vector 435  CAIN.ueD2DTx[9].tcp  "receive window"  ETV
vector 438  CAIN.ueD2DTx[9].tcp  "sent ack"  ETV
vector 340  CAIN.ueD2DTx[9].nic.pdcpRrc  receivedPacketFromUpperLayer:vector(packetBytes)  ETV
attr interpolationmode  none
attr source  receivedPacketFromUpperLayer
vector 343  CAIN.ueD2DTx[9].nic.pdcpRrc  sentPacketToLowerLayer:vector(packetBytes)  ETV
attr interpolationmode  none
attr source  sentPacketToLowerLayer
vector 344  CAIN.ueD2DTx[9].nic.mac  receivedPacketFromUpperLayer:vector(packetBytes)  ETV
attr interpolationmode  none
attr source  receivedPacketFromUpperLayer
vector 196  CAIN.ueD2DTx[3].nic.mac  sentPacketToUpperLayer:vector(packetBytes)  ETV
attr interpolationmode  none
attr source  sentPacketToUpperLayer
vector 221  CAIN.ueD2DTx[4].nic.mac  sentPacketToUpperLayer:vector(packetBytes)  ETV
attr interpolationmode  none
attr source  sentPacketToUpperLayer
vector 97  CAIN.eNodeB.nic.phy  averageCqiUlvect:vector  ETV
attr source  averageCqiUlvect
attr title  "Average Cqi reported in UL, vector"
attr unit  cqi
vector 346  CAIN.ueD2DTx[9].nic.mac  sentPacketToUpperLayer:vector(packetBytes)  ETV
attr interpolationmode  none
attr source  sentPacketToUpperLayer
vector 86  CAIN.eNodeB.nic.mac  sentPacketToUpperLayer:vector(packetBytes)  ETV
attr interpolationmode  none
attr source  sentPacketToUpperLayer
vector 81  CAIN.eNodeB.nic.pdcpRrc  receivedPacketFromLowerLayer:vector(packetBytes)  ETV
attr interpolationmode  none
attr source  receivedPacketFromLowerLayer
vector 82  CAIN.eNodeB.nic.pdcpRrc  sentPacketToUpperLayer:vector(packetBytes)  ETV
attr interpolationmode  none
attr source  sentPacketToUpperLayer
vector 80  CAIN.eNodeB.nic.pdcpRrc  receivedPacketFromUpperLayer:vector(packetBytes)  ETV
attr interpolationmode  none
attr source  receivedPacketFromUpperLayer
vector 83  CAIN.eNodeB.nic.pdcpRrc  sentPacketToLowerLayer:vector(packetBytes)  ETV
attr interpolationmode  none
attr source  sentPacketToLowerLayer
vector 84  CAIN.eNodeB.nic.mac  receivedPacketFromUpperLayer:vector(packetBytes)  ETV
attr interpolationmode  none
attr source  receivedPacketFromUpperLayer
vector 88  CAIN.eNodeB.nic.mac  measuredItbs:vector  ETV
attr source  measuredItbs
attr title  "TBS index, vector"
attr unit  ""
vector 131  CAIN.ueD2DTx[0].nic.phy  averageCqiDlvect:vector  ETV
attr source  averageCqiDlvect
attr title  "Average Cqi reported in DL, vector"
attr unit  cqi
vector 121  CAIN.ueD2DTx[0].nic.mac  sentPacketToUpperLayer:vector(packetBytes)  ETV
attr interpolationmode  none
attr source  sentPacketToUpperLayer
vector 116  CAIN.ueD2DTx[0].nic.pdcpRrc  receivedPacketFromLowerLayer:vector(packetBytes)  ETV
attr interpolationmode  none
attr source  receivedPacketFromLowerLayer
vector 117  CAIN.ueD2DTx[0].nic.pdcpRrc  sentPacketToUpperLayer:vector(packetBytes)  ETV
attr interpolationmode  none
attr source  sentPacketToUpperLayer
vector 473  CAIN.ueD2DTx[6].tcp  tcpRcvQueueBytes  ETV
vector 460  CAIN.ueD2DTx[6].tcp  "advertised window"  ETV
vector 459  CAIN.ueD2DTx[6].tcp  "receive window"  ETV
vector 462  CAIN.ueD2DTx[6].tcp  "sent ack"  ETV
vector 265  CAIN.ueD2DTx[6].nic.pdcpRrc  receivedPacketFromUpperLayer:vector(packetBytes)  ETV
attr interpolationmode  none
attr source  receivedPacketFromUpperLayer
vector 268  CAIN.ueD2DTx[6].nic.pdcpRrc  sentPacketToLowerLayer:vector(packetBytes)  ETV
attr interpolationmode  none
attr source  sentPacketToLowerLayer
vector 269  CAIN.ueD2DTx[6].nic.mac  receivedPacketFromUpperLayer:vector(packetBytes)  ETV
attr interpolationmode  none
attr source  receivedPacketFromUpperLayer
vector 497  CAIN.ueD2DTx[0].tcp  tcpRcvQueueBytes  ETV
vector 484  CAIN.ueD2DTx[0].tcp  "advertised window"  ETV
vector 483  CAIN.ueD2DTx[0].tcp  "receive window"  ETV
vector 486  CAIN.ueD2DTx[0].tcp  "sent ack"  ETV
vector 115  CAIN.ueD2DTx[0].nic.pdcpRrc  receivedPacketFromUpperLayer:vector(packetBytes)  ETV
attr interpolationmode  none
attr source  receivedPacketFromUpperLayer
vector 118  CAIN.ueD2DTx[0].nic.pdcpRrc  sentPacketToLowerLayer:vector(packetBytes)  ETV
attr interpolationmode  none
attr source  sentPacketToLowerLayer
vector 119  CAIN.ueD2DTx[0].nic.mac  receivedPacketFromUpperLayer:vector(packetBytes)  ETV
attr interpolationmode  none
attr source  receivedPacketFromUpperLayer
vector 521  CAIN.ueD2DTx[5].tcp  tcpRcvQueueBytes  ETV
vector 508  CAIN.ueD2DTx[5].tcp  "advertised window"  ETV
vector 507  CAIN.ueD2DTx[5].tcp  "receive window"  ETV
vector 510  CAIN.ueD2DTx[5].tcp  "sent ack"  ETV
vector 240  CAIN.ueD2DTx[5].nic.pdcpRrc  receivedPacketFromUpperLayer:vector(packetBytes)  ETV
attr interpolationmode  none
attr source  receivedPacketFromUpperLayer
vector 243  CAIN.ueD2DTx[5].nic.pdcpRrc  sentPacketToLowerLayer:vector(packetBytes)  ETV
attr interpolationmode  none
attr source  sentPacketToLowerLayer
vector 244  CAIN.ueD2DTx[5].nic.mac  receivedPacketFromUpperLayer:vector(packetBytes)  ETV
attr interpolationmode  none
attr source  receivedPacketFromUpperLayer
vector 271  CAIN.ueD2DTx[6].nic.mac  sentPacketToUpperLayer:vector(packetBytes)  ETV
attr interpolationmode  none
attr source  sentPacketToUpperLayer
vector 246  CAIN.ueD2DTx[5].nic.mac  sentPacketToUpperLayer:vector(packetBytes)  ETV
attr interpolationmode  none
attr source  sentPacketToUpperLayer
vector 545  CAIN.ueD2DTx[2].tcp  tcpRcvQueueBytes  ETV
vector 532  CAIN.ueD2DTx[2].tcp  "advertised window"  ETV
vector 531  CAIN.ueD2DTx[2].tcp  "receive window"  ETV
vector 534  CAIN.ueD2DTx[2].tcp  "sent ack"  ETV
vector 165  CAIN.ueD2DTx[2].nic.pdcpRrc  receivedPacketFromUpperLayer:vector(packetBytes)  ETV
attr interpolationmode  none
attr source  receivedPacketFromUpperLayer
vector 168  CAIN.ueD2DTx[2].nic.pdcpRrc  sentPacketToLowerLayer:vector(packetBytes)  ETV
attr interpolationmode  none
attr source  sentPacketToLowerLayer
vector 169  CAIN.ueD2DTx[2].nic.mac  receivedPacketFromUpperLayer:vector(packetBytes)  ETV
attr interpolationmode  none
attr source  receivedPacketFromUpperLayer
vector 256  CAIN.ueD2DTx[5].nic.phy  averageCqiDlvect:vector  ETV
attr source  averageCqiDlvect
attr title  "Average Cqi reported in DL, vector"
attr unit  cqi
vector 171  CAIN.ueD2DTx[2].nic.mac  sentPacketToUpperLayer:vector(packetBytes)  ETV
attr interpolationmode  none
attr source  sentPacketToUpperLayer
vector 241  CAIN.ueD2DTx[5].nic.pdcpRrc  receivedPacketFromLowerLayer:vector(packetBytes)  ETV
attr interpolationmode  none
attr source  receivedPacketFromLowerLayer
vector 242  CAIN.ueD2DTx[5].nic.pdcpRrc  sentPacketToUpperLayer:vector(packetBytes)  ETV
attr interpolationmode  none
attr source  sentPacketToUpperLayer
vector 569  CAIN.ueD2DTx[7].tcp  tcpRcvQueueBytes  ETV
vector 556  CAIN.ueD2DTx[7].tcp  "advertised window"  ETV
vector 555  CAIN.ueD2DTx[7].tcp  "receive window"  ETV
vector 558  CAIN.ueD2DTx[7].tcp  "sent ack"  ETV
vector 290  CAIN.ueD2DTx[7].nic.pdcpRrc  receivedPacketFromUpperLayer:vector(packetBytes)  ETV
attr interpolationmode  none
attr source  receivedPacketFromUpperLayer
vector 293  CAIN.ueD2DTx[7].nic.pdcpRrc  sentPacketToLowerLayer:vector(packetBytes)  ETV
attr interpolationmode  none
attr source  sentPacketToLowerLayer
vector 294  CAIN.ueD2DTx[7].nic.mac  receivedPacketFromUpperLayer:vector(packetBytes)  ETV
attr interpolationmode  none
attr source  receivedPacketFromUpperLayer
vector 296  CAIN.ueD2DTx[7].nic.mac  sentPacketToUpperLayer:vector(packetBytes)  ETV
attr interpolationmode  none
attr source  sentPacketToUpperLayer
vector 593  CAIN.ueD2DTx[1].tcp  tcpRcvQueueBytes  ETV
vector 580  CAIN.ueD2DTx[1].tcp  "advertised window"  ETV
vector 579  CAIN.ueD2DTx[1].tcp  "receive window"  ETV
vector 582  CAIN.ueD2DTx[1].tcp  "sent ack"  ETV
vector 140  CAIN.ueD2DTx[1].nic.pdcpRrc  receivedPacketFromUpperLayer:vector(packetBytes)  ETV
attr interpolationmode  none
attr source  receivedPacketFromUpperLayer
vector 143  CAIN.ueD2DTx[1].nic.pdcpRrc  sentPacketToLowerLayer:vector(packetBytes)  ETV
attr interpolationmode  none
attr source  sentPacketToLowerLayer
vector 144  CAIN.ueD2DTx[1].nic.mac  receivedPacketFromUpperLayer:vector(packetBytes)  ETV
attr interpolationmode  none
attr source  receivedPacketFromUpperLayer
8	24049 8 0 0 0 0 1 0 0 0 0
9	24057 8 0 0 0 0 1 0 0 0 0
24	24065 9 0 0 0 0 1 0 0 0 0
25	24074 9 0 0 0 0 1 0 0 0 0
35	24083 9 0 0 0 0 1 0 0 0 0
36	24092 9 0 0 0 0 1 0 0 0 0
56	24101 9 0 0 0 0 1 0 0 0 0
57	24110 9 0 0 0 0 1 0 0 0 0
67	24119 9 0 0 0 0 1 0 0 0 0
68	24128 9 0 0 0 0 1 0 0 0 0
80	24137 267 1689 342322 0.042 3.073 15 44 44 660 29040
81	24404 267 1684 342317 0.042 3.073 15 45 45 675 30375
82	24671 267 1684 342317 0.042 3.073 15 44 44 660 29040
83	24938 267 1689 342322 0.042 3.073 15 45 45 675 30375
84	25205 538 1692 342401 0.042 3.074 30 45 47 1380 63510
85	25743 692586 90 574132 0.002 5.132 39067 0 0 0 0
86	718329 523 1680 342396 0.042 3.074 30 0 47 705 33135
87	718852 480499 591 573976 0.028 5.131 27487 0 0 0 0
88	1199351 289 1781 342396 0.043 3.074 16 2 26 392 10144
89	1199640 587075 798 574099 0.032 5.131 27423 1 27423 376024176 6874599327024
90	1786715 120738 798 573838 0.032 5.129 6094 171 424 1812965 636874799
91	1907453 108550 798 573838 0.032 5.129 6094 1 2 12187 24373
92	2016003 454149 892 574099 0.034 5.131 21329 1 21329 227473785 3234601398105
93	2470152 422597 892 574099 0.034 5.131 21329 188 730 6861844 2933895360
94	2892749 519584 591 574099 0.028 5.131 24381 1 24381 297228771 4831255520091
95	3412333 460597 591 574099 0.028 5.131 24381 50 730 2491021 846595883
97	3872930 303 1322 342048 0.039 3.07 17 3 15 219 3079
102	3873233 10 0 0 0 0 1 0 0 0 0
103	3873243 10 0 0 0 0 1 0 0 0 0
115	3873253 56 2403 339612 0.052847558425 3.052847558425 2 44 44 88 3872
116	3873309 246 2070 342750 0.047 3.078 13 45 45 585 26325
117	3873555 246 2070 342750 0.047 3.078 13 44 44 572 25168
118	3873801 56 2403 339612 0.052847558425 3.052847558425 2 45 45 90 4050
119	3873857 94 2406 340303 0.052847558425 3.057 4 45 47 184 8468
120	3873951 967313 614 574070 0.029 5.131 51842 0 0 0 0
121	4841264 282 2066 342746 0.047 3.078 15 0 47 611 28717
122	4841546 1024685 614 574070 0.029 5.131 54892 0 0 0 0
129	5866231 1163200 614 574070 0.029 5.131 51825 1 51825 1342941225 46399066970825
130	7029431 1021856 614 574070 0.029 5.131 51825 0 171 4055873 601652993
131	8051287 248 1904 342532 0.044 3.075 13 15 15 195 2925
134	8051535 10 0 0 0 0 1 1 1 1 1
140	8051545 56 5679 344475 0.093352724272 3.093352724272 2 44 44 88 3872
143	8051601 56 5679 344475 0.093352724272 3.093352724272 2 45 45 90 4050
144	8051657 56 5682 344478 0.093352724272 3.093352724272 2 45 45 90 4050
145	8051713 76356 720 574134 0.031 5.132 4058 0 0 0 0
147	8128069 76336 720 574049 0.031 5.131 4057 0 0 0 0
154	8204405 65400 720 574049 0.031 5.131 3049 1 3049 4649725 9452890925
155	8269805 63456 720 574049 0.031 5.131 3049 0 145 441960 64084200
159	8333261 10 0 0 0 0 1 1 1 1 1
165	8333271 56 3390 341103 0.061955560849 3.061955560849 2 44 44 88 3872
168	8333327 56 3390 341103 0.061955560849 3.061955560849 2 45 45 90 4050
169	8333383 94 3393 341463 0.061955560849 3.066 4 45 47 184 8468
170	8333477 57413 723 574052 0.031 5.131 3052 0 0 0 0
171	8390890 36 3706 341459 0.066 3.066 2 0 0 0 0
172	8390926 57413 723 574052 0.031 5.131 3052 0 0 0 0
179	8448339 65378 723 574052 0.031 5.131 3048 1 3048 4646676 9443594524
180	8513717 63437 723 574052 0.031 5.131 3048 145 145 441960 64084200
184	8577154 10 0 0 0 0 1 1 1 1 1
190	8577164 55 848 336873 0.033422728663 3.033422728663 2 44 44 88 3872
193	8577219 55 848 336873 0.033422728663 3.033422728663 2 45 45 90 4050
194	8577274 93 851 337450 0.033422728663 3.038 4 45 47 184 8468
195	8577367 57413 717 574046 0.031 5.131 3052 0 0 0 0
196	8634780 36 1171 337446 0.038 3.038 2 0 0 0 0
197	8634816 57412 717 574046 0.031 5.131 3052 0 0 0 0
204	8692228 65378 717 574046 0.031 5.131 3048 1 3048 4646676 9443594524
205	8757606 63437 717 574046 0.031 5.131 3048 145 145 441960 64084200
209	8821043 10 0 0 0 0 1 1 1 1 1
215	8821053 55 909 336985 0.034129833705 3.034129833705 2 44 44 88 3872
218	8821108 55 909 336985 0.034129833705 3.034129833705 2 45 45 90 4050
219	8821163 93 912 337649 0.034129833705 3.039 4 45 47 184 8468
220	8821256 855832 663 574204 0.03 5.132 45738 0 0 0 0
221	9677088 36 1309 337645 0.039 3.039 2 0 0 0 0
222	9677124 855812 663 574201 0.03 5.132 45737 0 0 0 0
229	10532936 1027567 663 574201 0.03 5.132 45733 1 45733 1045776511 31884680043879
230	11560503 922807 663 574201 0.03 5.132 45733 50 730 8082694 2995078330
234	12483310 10 0 0 0 0 1 1 1 1 1
240	12483320 56 2465 339733 0.053824975863 3.053824975863 2 44 44 88 3872
241	12483376 38 3717 341470 0.066 3.066 2 45 45 90 4050
242	12483414 38 3717 341470 0.066 3.066 2 44 44 88 3872
243	12483452 56 2465 339733 0.053824975863 3.053824975863 2 45 45 90 4050
244	12483508 94 2468 340493 0.053824975863 3.058 4 45 47 184 8468
245	12483602 56910 687 574189 0.03 5.132 3056 0 0 0 0
246	12540512 74 2969 341466 0.058 3.066 4 0 47 94 4418
247	12540586 56910 687 574189 0.03 5.132 3056 0 0 0 0
254	12597496 64845 687 574189 0.03 5.132 3050 1 3050 4652775 9462193425
255	12662341 59852 687 574189 0.03 5.132 3050 50 50 152500 7625000
256	12722193 38 3513 341238 0.063 3.063 2 15 15 30 450
259	12722231 10 0 0 0 0 1 1 1 1 1
265	12722241 56 2356 339508 0.051566809383 3.051566809383 2 44 44 88 3872
268	12722297 56 2356 339508 0.051566809383 3.051566809383 2 45 45 90 4050
269	12722353 94 2359 340080 0.051566809383 3.056 4 45 47 184 8468
270	12722447 57414 729 574058 0.031 5.131 3052 0 0 0 0
271	12779861 36 2692 340076 0.056 3.056 2 0 0 0 0
272	12779897 57414 729 574058 0.031 5.131 3052 0 0 0 0
279	12837311 65379 729 574058 0.031 5.131 3048 1 3048 4646676 9443594524
280	12902690 63438 729 574058 0.031 5.131 3048 145 145 441960 64084200
284	12966128 10 0 0 0 0 1 1 1 1 1
290	12966138 56 4493 342826 0.078519724591 3.078519724591 2 44 44 88 3872
293	12966194 56 4493 342826 0.078519724591 3.078519724591 2 45 45 90 4050
294	12966250 19048 4496 573658 0.078519724591 5.128 1011 0 47 137 6259
295	12985298 76408 732 574136 0.031 5.132 4061 0 0 0 0
296	13061706 18991 4776 573654 0.083 5.128 1009 0 0 0 0
297	13080697 76369 732 574061 0.031 5.131 4059 0 0 0 0
304	13157066 65401 732 574061 0.031 5.131 3049 1 3049 4649725 9452890925
305	13222467 63457 732 574061 0.031 5.131 3049 0 145 441960 64084200
309	13285924 10 0 0 0 0 1 1 1 1 1
315	13285934 55 561 336097 0.026259455872 3.026259455872 2 44 44 88 3872
318	13285989 55 561 336097 0.026259455872 3.026259455872 2 45 45 90 4050
319	13286044 19250 564 573991 0.026259455872 5.131 1023 0 45 90 4050
320	13305294 75965 661 574064 0.03 5.131 4069 0 0 0 0
321	13381259 19195 708 573987 0.031 5.131 1021 0 0 0 0
322	13400454 76555 574 574109 0.027 5.132 4070 0 0 0 0
329	13477009 65379 735 574064 0.031 5.131 3048 1 3048 4646676 9443594524
330	13542388 63438 735 574064 0.031 5.131 3048 145 145 441960 64084200
334	13605826 10 0 0 0 0 1 1 1 1 1
340	13605836 56 1059 337276 0.036168531764 3.036168531764 2 44 44 88 3872
343	13605892 56 1059 337276 0.036168531764 3.036168531764 2 45 45 90 4050
344	13605948 94 1062 338027 0.036168531764 3.041 4 45 47 184 8468
345	13606042 57411 726 574055 0.031 5.131 3052 0 0 0 0
346	13663453 36 1572 338023 0.041 3.041 2 0 0 0 0
347	13663489 57413 726 574055 0.031 5.131 3052 0 0 0 0
354	13720902 65378 726 574055 0.031 5.131 3048 1 3048 4646676 9443594524
355	13786280 63437 726 574055 0.031 5.131 3048 145 145 441960 64084200
359	13849717 10 0 0 0 0 1 1 1 1 1
363	13849727 59 558 336094 0.026259455872 3.026259455872 2 7504 7504 15008 112620032
364	13849786 59 558 336094 0.026259455872 3.026259455872 2 7504 7504 15008 112620032
366	13849845 53 558 336094 0.026259455872 3.026259455872 2 0 0 0 0
377	13849898 53 558 336094 0.026259455872 3.026259455872 2 0 0 0 0
387	13849951 59 845 336870 0.033422728663 3.033422728663 2 7504 7504 15008 112620032
388	13850010 59 845 336870 0.033422728663 3.033422728663 2 7504 7504 15008 112620032
390	13850069 53 845 336870 0.033422728663 3.033422728663 2 0 0 0 0
401	13850122 53 845 336870 0.033422728663 3.033422728663 2 0 0 0 0
411	13850175 59 906 336982 0.034129833705 3.034129833705 2 7504 7504 15008 112620032
412	13850234 59 906 336982 0.034129833705 3.034129833705 2 7504 7504 15008 112620032
414	13850293 53 906 336982 0.034129833705 3.034129833705 2 0 0 0 0
425	13850346 53 906 336982 0.034129833705 3.034129833705 2 0 0 0 0
435	13850399 60 1056 337273 0.036168531764 3.036168531764 2 7504 7504 15008 112620032
436	13850459 60 1056 337273 0.036168531764 3.036168531764 2 7504 7504 15008 112620032
438	13850519 54 1056 337273 0.036168531764 3.036168531764 2 0 0 0 0
449	13850573 54 1056 337273 0.036168531764 3.036168531764 2 0 0 0 0
459	13850627 60 2353 339505 0.051566809383 3.051566809383 2 7504 7504 15008 112620032
460	13850687 60 2353 339505 0.051566809383 3.051566809383 2 7504 7504 15008 112620032
462	13850747 54 2353 339505 0.051566809383 3.051566809383 2 0 0 0 0
473	13850801 54 2353 339505 0.051566809383 3.051566809383 2 0 0 0 0
483	13850855 60 2400 339609 0.052847558425 3.052847558425 2 7504 7504 15008 112620032
484	13850915 60 2400 339609 0.052847558425 3.052847558425 2 7504 7504 15008 112620032
486	13850975 54 2400 339609 0.052847558425 3.052847558425 2 0 0 0 0
497	13851029 54 2400 339609 0.052847558425 3.052847558425 2 0 0 0 0
507	13851083 60 2462 339730 0.053824975863 3.053824975863 2 7504 7504 15008 112620032
508	13851143 60 2462 339730 0.053824975863 3.053824975863 2 7504 7504 15008 112620032
510	13851203 54 2462 339730 0.053824975863 3.053824975863 2 0 0 0 0
521	13851257 54 2462 339730 0.053824975863 3.053824975863 2 0 0 0 0
531	13851311 60 3387 341100 0.061955560849 3.061955560849 2 7504 7504 15008 112620032
532	13851371 60 3387 341100 0.061955560849 3.061955560849 2 7504 7504 15008 112620032
534	13851431 54 3387 341100 0.061955560849 3.061955560849 2 0 0 0 0
545	13851485 54 3387 341100 0.061955560849 3.061955560849 2 0 0 0 0
555	13851539 60 4490 342823 0.078519724591 3.078519724591 2 7504 7504 15008 112620032
556	13851599 60 4490 342823 0.078519724591 3.078519724591 2 7504 7504 15008 112620032
558	13851659 54 4490 342823 0.078519724591 3.078519724591 2 0 0 0 0
569	13851713 54 4490 342823 0.078519724591 3.078519724591 2 0 0 0 0
579	13851767 60 5676 344472 0.093352724272 3.093352724272 2 7504 7504 15008 112620032
580	13851827 60 5676 344472 0.093352724272 3.093352724272 2 7504 7504 15008 112620032
582	13851887 54 5676 344472 0.093352724272 3.093352724272 2 0 0 0 0
593	13851941 54 5676 344472 0.093352724272 3.093352724272 2 0 0 0 0
80	13851995 158 1015074 1019178 9.042 9.073 8 44 44 352 15488
81	13852153 158 1015069 1019173 9.042 9.073 8 45 45 360 16200
82	13852311 158 1015069 1019173 9.042 9.073 8 44 44 352 15488
83	13852469 158 1015074 1019178 9.042 9.073 8 45 45 360 16200
84	13852627 318 1015077 1019257 9.042 9.074 16 45 47 736 33872
85	13852945 678081 574213 1123434 5.132 10 37366 0 0 0 0
86	14531026 310 1015065 1019252 9.042 9.074 16 0 47 376 17672
87	14531336 471462 574235 1123434 5.133 10 26346 0 0 0 0
88	15002798 179 1015224 1019252 9.043 9.074 9 2 26 210 5412
89	15002977 584732 574213 1123408 5.132 9.999 26311 27424 53734 1067674069 44843002903611
90	15587709 118312 574213 1123394 5.132 9.999 5850 171 424 1740375 611374725
91	15706021 106612 574213 1123394 5.132 9.999 5850 2 2 11700 23400
92	15812633 454720 574410 1123408 5.134 9.999 20461 21330 41790 645749160 21093680923910
93	16267353 413798 574410 1123408 5.134 9.999 20461 188 730 6582596 2814498240
94	16681151 518684 574235 1123434 5.133 10 23388 24382 47769 843733794 31504218645754
95	17199835 451446 574235 1123434 5.133 10 23388 50 730 2387963 810182689
97	17651281 195 1014515 1018904 9.039 9.07 10 3 15 117 1589
115	17651476 30 1016468 1016468 9.052847558425 9.052847558425 1 44 44 44 1936
116	17651506 146 1015767 1019606 9.047 9.078 7 45 45 315 14175
117	17651652 146 1015767 1019606 9.047 9.078 7 44 44 308 13552
118	17651798 30 1016468 1016468 9.052847558425 9.052847558425 1 45 45 45 2025
119	17651828 51 1016471 1017159 9.052847558425 9.057 2 45 47 92 4234
120	17651879 948127 574266 1123510 5.133 10 49716 0 0 0 0
121	18600006 166 1015763 1019602 9.047 9.078 8 0 47 329 15463
122	18600172 1004318 574266 1123510 5.133 10 52639 0 0 0 0
129	19604490 1148308 574266 1123510 5.133 10 49707 51826 101532 3811483053 3.0249532169986e+14
130	20752798 1000593 574266 1123510 5.133 10 49707 0 171 3892859 577464659
131	21753391 147 1015409 1019388 9.044 9.075 7 15 15 105 1575
140	21753538 30 1021331 1021331 9.093352724272 9.093352724272 1 44 44 44 1936
143	21753568 30 1021331 1021331 9.093352724272 9.093352724272 1 45 45 45 2025
144	21753598 30 1021334 1021334 9.093352724272 9.093352724272 1 45 45 45 2025
145	21753628 74957 574248 1123261 5.133 9.998 3899 0 0 0 0
147	21828585 74956 574248 1123308 5.133 9.999 3899 0 0 0 0
154	21903541 65007 574248 1123261 5.133 9.998 2925 3050 5974 13197600 61633004550
155	21968548 62080 574248 1123261 5.133 9.998 2925 0 145 423980 61477100
165	22030628 30 1017959 1017959 9.061955560849 9.061955560849 1 44 44 44 1936
168	22030658 30 1017959 1017959 9.061955560849 9.061955560849 1 45 45 45 2025
169	22030688 51 1017962 1018319 9.061955560849 9.066 2 45 47 92 4234
170	22030739 56252 574251 1123264 5.133 9.998 2926 0 0 0 0
171	22086991 20 1018315 1018315 9.066 9.066 1 0 0 0 0
172	22087011 56252 574251 1123264 5.133 9.998 2926 0 0 0 0
179	22143263 64984 574251 1123264 5.133 9.998 2924 3049 5972 13188702 61570935546
180	22208247 62060 574251 1123264 5.133 9.998 2924 145 145 423980 61477100
190	22270307 30 1013729 1013729 9.033422728663 9.033422728663 1 44 44 44 1936
193	22270337 30 1013729 1013729 9.033422728663 9.033422728663 1 45 45 45 2025
194	22270367 51 1013732 1014306 9.033422728663 9.038 2 45 47 92 4234
195	22270418 56252 574245 1123258 5.133 9.998 2926 0 0 0 0
196	22326670 20 1014302 1014302 9.038 9.038 1 0 0 0 0
197	22326690 56252 574245 1123258 5.133 9.998 2926 0 0 0 0
204	22382942 64984 574245 1123258 5.133 9.998 2924 3049 5972 13188702 61570935546
205	22447926 62060 574245 1123258 5.133 9.998 2924 145 145 423980 61477100
215	22509986 30 1013841 1013841 9.034129833705 9.034129833705 1 44 44 44 1936
218	22510016 30 1013841 1013841 9.034129833705 9.034129833705 1 45 45 45 2025
219	22510046 51 1013844 1014505 9.034129833705 9.039 2 45 47 92 4234
220	22510097 838746 574207 1123465 5.132 10 43856 0 0 0 0
221	23348843 20 1014501 1014501 9.039 9.039 1 0 0 0 0
222	23348863 838765 574204 1123465 5.132 10 43857 0 0 0 0
229	24187628 1014145 574204 1123465 5.132 10 43855 45734 89588 2967273155 2.0779738662442e+14
230	25201773 903051 574204 1123465 5.132 10 43855 50 730 7755450 2874701030
240	26104824 30 1016589 1016589 9.053824975863 9.053824975863 1 44 44 44 1936
241	26104854 21 1018326 1018326 9.066 9.066 1 45 45 45 2025
242	26104875 21 1018326 1018326 9.066 9.066 1 44 44 44 1936
243	26104896 30 1016589 1016589 9.053824975863 9.053824975863 1 45 45 45 2025
244	26104926 51 1016592 1017349 9.053824975863 9.058 2 45 47 92 4234
245	26104977 55708 574482 1123468 5.135 10 2926 0 0 0 0
246	26160685 41 1017345 1018322 9.058 9.066 2 0 47 47 2209
247	26160726 55708 574482 1123468 5.135 10 2926 0 0 0 0
254	26216434 64417 574482 1123468 5.135 10 2923 3051 5973 13188576 61588013374
255	26280851 58571 574482 1123468 5.135 10 2923 50 50 146150 7307500
256	26339422 21 1018094 1018094 9.063 9.063 1 15 15 15 225
265	26339443 30 1016364 1016364 9.051566809383 9.051566809383 1 44 44 44 1936
268	26339473 30 1016364 1016364 9.051566809383 9.051566809383 1 45 45 45 2025
269	26339503 51 1016367 1016936 9.051566809383 9.056 2 45 47 92 4234
270	26339554 56252 574257 1123270 5.133 9.998 2926 0 0 0 0
271	26395806 20 1016932 1016932 9.056 9.056 1 0 0 0 0
272	26395826 56252 574257 1123270 5.133 9.998 2926 0 0 0 0
279	26452078 64984 574257 1123270 5.133 9.998 2924 3049 5972 13188702 61570935546
280	26517062 62060 574257 1123270 5.133 9.998 2924 145 145 423980 61477100
290	26579122 30 1019682 1019682 9.078519724591 9.078519724591 1 44 44 44 1936
293	26579152 30 1019682 1019682 9.078519724591 9.078519724591 1 45 45 45 2025
294	26579182 18735 574228 1123194 5.133 9.998 974 0 47 92 4234
295	26597917 74957 574260 1123273 5.133 9.998 3899 0 0 0 0
296	26672874 18704 574224 1123190 5.133 9.998 973 0 0 0 0
297	26691578 74936 574260 1123315 5.133 9.999 3898 0 0 0 0
304	26766514 65007 574260 1123273 5.133 9.998 2925 3050 5974 13197600 61633004550
305	26831521 62080 574260 1123273 5.133 9.998 2925 0 145 423980 61477100
315	26893601 30 1012953 1012953 9.026259455872 9.026259455872 1 44 44 44 1936
318	26893631 30 1012953 1012953 9.026259455872 9.026259455872 1 45 45 45 2025
319	26893661 18734 574551 1122967 5.136 9.996 974 0 45 45 2025
320	26912395 74391 574263 1123422 5.133 10 3898 0 0 0 0
321	26986786 18704 574547 1122963 5.136 9.996 973 0 0 0 0
322	27005490 74916 574263 1123276 5.133 9.998 3897 0 0 0 0
329	27080406 64984 574263 1123276 5.133 9.998 2924 3049 5972 13188702 61570935546
330	27145390 62060 574263 1123276 5.133 9.998 2924 145 145 423980 61477100
340	27207450 30 1014132 1014132 9.036168531764 9.036168531764 1 44 44 44 1936
343	27207480 30 1014132 1014132 9.036168531764 9.036168531764 1 45 45 45 2025
344	27207510 51 1014135 1014883 9.036168531764 9.041 2 45 47 92 4234
345	27207561 56251 574254 1123267 5.133 9.998 2926 0 0 0 0
346	27263812 20 1014879 1014879 9.041 9.041 1 0 0 0 0
347	27263832 56252 574254 1123267 5.133 9.998 2926 0 0 0 0
354	27320084 64984 574254 1123267 5.133 9.998 2924 3049 5972 13188702 61570935546
355	27385068 62060 574254 1123267 5.133 9.998 2924 145 145 423980 61477100
363	27447128 32 1012950 1012950 9.026259455872 9.026259455872 1 7504 7504 7504 56310016
364	27447160 32 1012950 1012950 9.026259455872 9.026259455872 1 7504 7504 7504 56310016
366	27447192 29 1012950 1012950 9.026259455872 9.026259455872 1 0 0 0 0
377	27447221 29 1012950 1012950 9.026259455872 9.026259455872 1 0 0 0 0
387	27447250 32 1013726 1013726 9.033422728663 9.033422728663 1 7504 7504 7504 56310016
388	27447282 32 1013726 1013726 9.033422728663 9.033422728663 1 7504 7504 7504 56310016
390	27447314 29 1013726 1013726 9.033422728663 9.033422728663 1 0 0 0 0
401	27447343 29 1013726 1013726 9.033422728663 9.033422728663 1 0 0 0 0
411	27447372 32 1013838 1013838 9.034129833705 9.034129833705 1 7504 7504 7504 56310016
412	27447404 32 1013838 1013838 9.034129833705 9.034129833705 1 7504 7504 7504 56310016
414	27447436 29 1013838 1013838 9.034129833705 9.034129833705 1 0 0 0 0
425	27447465 29 1013838 1013838 9.034129833705 9.034129833705 1 0 0 0 0
435	27447494 32 1014129 1014129 9.036168531764 9.036168531764 1 7504 7504 7504 56310016
436	27447526 32 1014129 1014129 9.036168531764 9.036168531764 1 7504 7504 7504 56310016
438	27447558 29 1014129 1014129 9.036168531764 9.036168531764 1 0 0 0 0
449	27447587 29 1014129 1014129 9.036168531764 9.036168531764 1 0 0 0 0
459	27447616 32 1016361 1016361 9.051566809383 9.051566809383 1 7504 7504 7504 56310016
460	27447648 32 1016361 1016361 9.051566809383 9.051566809383 1 7504 7504 7504 56310016
462	27447680 29 1016361 1016361 9.051566809383 9.051566809383 1 0 0 0 0
473	27447709 29 1016361 1016361 9.051566809383 9.051566809383 1 0 0 0 0
483	27447738 32 1016465 1016465 9.052847558425 9.052847558425 1 7504 7504 7504 56310016
484	27447770 32 1016465 1016465 9.052847558425 9.052847558425 1 7504 7504 7504 56310016
486	27447802 29 1016465 1016465 9.052847558425 9.052847558425 1 0 0 0 0
497	27447831 29 1016465 1016465 9.052847558425 9.052847558425 1 0 0 0 0
507	27447860 32 1016586 1016586 9.053824975863 9.053824975863 1 7504 7504 7504 56310016
508	27447892 32 1016586 1016586 9.053824975863 9.053824975863 1 7504 7504 7504 56310016
510	27447924 29 1016586 1016586 9.053824975863 9.053824975863 1 0 0 0 0
521	27447953 29 1016586 1016586 9.053824975863 9.053824975863 1 0 0 0 0
531	27447982 32 1017956 1017956 9.061955560849 9.061955560849 1 7504 7504 7504 56310016
532	27448014 32 1017956 1017956 9.061955560849 9.061955560849 1 7504 7504 7504 56310016
534	27448046 29 1017956 1017956 9.061955560849 9.061955560849 1 0 0 0 0
545	27448075 29 1017956 1017956 9.061955560849 9.061955560849 1 0 0 0 0
555	27448104 32 1019679 1019679 9.078519724591 9.078519724591 1 7504 7504 7504 56310016
556	27448136 32 1019679 1019679 9.078519724591 9.078519724591 1 7504 7504 7504 56310016
558	27448168 29 1019679 1019679 9.078519724591 9.078519724591 1 0 0 0 0
569	27448197 29 1019679 1019679 9.078519724591 9.078519724591 1 0 0 0 0
579	27448226 32 1021328 1021328 9.093352724272 9.093352724272 1 7504 7504 7504 56310016
580	27448258 32 1021328 1021328 9.093352724272 9.093352724272 1 7504 7504 7504 56310016
582	27448290 29 1021328 1021328 9.093352724272 9.093352724272 1 0 0 0 0
593	27448319 29 1021328 1021328 9.093352724272 9.093352724272 1 0 0 0 0
