file 1547789 1576008660                                         
version 2
run CAIN-0-20191210-17:10:42-23084
attr configname CAIN
attr datetime 20191210-17:10:42
attr experiment CAIN
attr inifile omnetpp.ini
attr iterationvars ""
attr iterationvars2 $repetition=0
attr measurement ""
attr network lte.simulations.networks.CAIN
attr processid 23084
attr repetition 0
attr replication #0
attr resultdir results
attr runnumber 0
attr seedset 0
param **.**.amcMode "\"AUTO\""
param **.amcMode "\"D2D\""
param **.channelControl.alpha 1.0
param **.channelControl.carrierFrequency 2100e+6Hz
param **.channelControl.pMax 10W
param **.d2dCqi 7
param **.deployer.numRbDl 50
param **.deployer.numRbUl 50
param **.fbDelay 1
param **.feedbackComputation "xmldoc(\"config_channel.xml\")"
param **.mobility.constraintAreaMaxX 1000m
param **.mobility.constraintAreaMaxY 1000m
param **.mobility.constraintAreaMaxZ 0m
param **.mobility.constraintAreaMinX 0m
param **.mobility.constraintAreaMinY 0m
param **.mobility.constraintAreaMinZ 0m
param **.nic.phy.channelModel "xmldoc(\"config_channel.xml\")"
param **.numBands 50
param **.pwrThresh -20
param **.rbAllocationType "\"localized\""
param **.routingRecorder.enabled false
param **.tcpApp[*].tClose -1s
param **.ueD2DTx[*].mobility.changeAngleBy "normal(0deg, 30deg)"
param **.ueD2DTx[*].mobility.changeInterval "normal(5s, 0.1s)"
param **.ueD2DTx[*].mobility.speed "normal(2mps, 0.01mps)"
param **.usePreconfiguredTxParams false
param *.eNodeB.d2dCapable false
param *.eNodeB.mobility.initFromDisplayString false
param *.eNodeB.mobility.initialX 300m
param *.eNodeB.mobility.initialY 300m
param *.eNodeB.nic.phy.enableD2DCqiReporting true
param *.eNodeB.txPower 19952.62315mw
param *.numUeCell 0
param *.numUeD2DRx 1
param *.numUeD2DTx 1
param *.ue*.macCellId 1
param *.ue*.masterId 1
param *.ue*.mobility.initFromDisplayString false
param *.ue*[0].macCellId 1
param *.ue*[0].masterId 1
param *.ue*[0].mobility.initFromDisplayString false
param *.ueD2D*.numTcpApps 1
param *.ueD2D*[*].d2dCapable true
param *.ueD2D*[0].d2dCapable false
param *.ueD2D*[0].numTcpApps 1
param *.ueD2DRx[0].mobility.initialX 310m
param *.ueD2DRx[0].mobility.initialY 350m
param *.ueD2DRx[0].tcpApp[*].localPort 1000
param *.ueD2DRx[0].tcpApp[*].typename "\"TCPSinkApp\""
param *.ueD2DTx*.tcpApp[*].connectAddress "\"ueD2DTx[0]\""
param *.ueD2DTx*.tcpApp[*].localAddress "\"ueD2DTx\""
param *.ueD2DTx*.tcpApp[*].localPort 1000
param *.ueD2DTx*.tcpApp[*].sendBytes 1GiB
param *.ueD2DTx*.tcpApp[*].typename "\"TCPSessionApp\""
param *.ueD2DTx*.tcpApp[0].active true
param *.ueD2DTx*.tcpApp[0].connectPort 1000
param *.ueD2DTx*.tcpApp[0].tOpen uniform(0.010s,0.1s)
param *.ueD2DTx*.tcpApp[0].tSend uniform(0.15s,0.5s)
param *.ueD2DTx[0].mobility.initialX 290m
param *.ueD2DTx[0].mobility.initialY 350m
param *.ueD2DTx[0].nic.d2dPeerAddresses "\"ueD2DTx[1]\""
param *.ueD2DTx[0].tcpApp[*].localPort 1000
param *.ueD2DTx[0].tcpApp[*].sendBytes 1GiB
param *.ueD2DTx[0].tcpApp[*].typename "\"TCPSessionApp\""
param *.ueD2DTx[0].tcpApp[0].active true
param *.ueD2DTx[0].tcpApp[0].connectAddress "\"ueD2DRx[0]\""
param *.ueD2DTx[0].tcpApp[0].connectPort 1000
param *.ueD2DTx[0].tcpApp[0].localAddress "\"ueD2DTx[0]\""
param *.ueD2DTx[0].tcpApp[0].tOpen uniform(0.010s,0.1s)
param *.ueD2DTx[0].tcpApp[0].tSend uniform(0.15s,0.5s)
param *.ueD2DTx[1].mobility.initialX 500m
param *.ueD2DTx[1].mobility.initialY 500m
param *.ueD2DTx[1].nic.d2dPeerAddresses "\"ueD2DTx[0]\""
param *.ueD2DTx[2].mobility.initialX 290m
param *.ueD2DTx[2].mobility.initialY 500m
param *.ueD2DTx[3].mobility.initialX 400m
param *.ueD2DTx[3].mobility.initialY 500m

vector 8  CAIN.server.ppp[0].queue  queueLength:vector  ETV
attr interpolationmode  sample-hold
attr title  "queue length, vector"
vector 9  CAIN.server.ppp[0].ppp  txState:vector  ETV
attr interpolationmode  sample-hold
attr title  "tx state, vector"
vector 24  CAIN.router.ppp[0].queue  queueLength:vector  ETV
attr interpolationmode  sample-hold
attr title  "queue length, vector"
vector 25  CAIN.router.ppp[0].ppp  txState:vector  ETV
attr interpolationmode  sample-hold
attr title  "tx state, vector"
vector 35  CAIN.router.ppp[1].queue  queueLength:vector  ETV
attr interpolationmode  sample-hold
attr title  "queue length, vector"
vector 36  CAIN.router.ppp[1].ppp  txState:vector  ETV
attr interpolationmode  sample-hold
attr title  "tx state, vector"
vector 56  CAIN.pgw.ppp[0].queue  queueLength:vector  ETV
attr interpolationmode  sample-hold
attr title  "queue length, vector"
vector 57  CAIN.pgw.ppp[0].ppp  txState:vector  ETV
attr interpolationmode  sample-hold
attr title  "tx state, vector"
vector 67  CAIN.pgw.pppInterface.queue  queueLength:vector  ETV
attr interpolationmode  sample-hold
attr title  "queue length, vector"
vector 68  CAIN.pgw.pppInterface.ppp  txState:vector  ETV
attr interpolationmode  sample-hold
attr title  "tx state, vector"
vector 98  CAIN.eNodeB.pppIf.queue  queueLength:vector  ETV
attr interpolationmode  sample-hold
attr title  "queue length, vector"
vector 99  CAIN.eNodeB.pppIf.ppp  txState:vector  ETV
attr interpolationmode  sample-hold
attr title  "tx state, vector"
vector 126  CAIN.ueD2DTx[0].nic.phy  servingCell:vector  ETV
attr source  servingCell
attr title  "ID of the serving eNodeB for the UE, vector"
attr unit  ""
vector 147  CAIN.ueD2DTx[1].nic.phy  servingCell:vector  ETV
attr source  servingCell
attr title  "ID of the serving eNodeB for the UE, vector"
attr unit  ""
vector 168  CAIN.ueD2DTx[2].nic.phy  servingCell:vector  ETV
attr source  servingCell
attr title  "ID of the serving eNodeB for the UE, vector"
attr unit  ""
vector 189  CAIN.ueD2DTx[3].nic.phy  servingCell:vector  ETV
attr source  servingCell
attr title  "ID of the serving eNodeB for the UE, vector"
attr unit  ""
vector 85  CAIN.eNodeB.nic.mac  receivedPacketFromLowerLayer:vector(packetBytes)  ETV
attr interpolationmode  none
attr source  receivedPacketFromLowerLayer
vector 207  CAIN.ueD2DTx[3].tcp  tcpRcvQueueBytes  ETV
vector 194  CAIN.ueD2DTx[3].tcp  "advertised window"  ETV
vector 193  CAIN.ueD2DTx[3].tcp  "receive window"  ETV
vector 196  CAIN.ueD2DTx[3].tcp  "sent ack"  ETV
vector 174  CAIN.ueD2DTx[3].nic.pdcpRrc  receivedPacketFromUpperLayer:vector(packetBytes)  ETV
attr interpolationmode  none
attr source  receivedPacketFromUpperLayer
vector 177  CAIN.ueD2DTx[3].nic.pdcpRrc  sentPacketToLowerLayer:vector(packetBytes)  ETV
attr interpolationmode  none
attr source  sentPacketToLowerLayer
vector 178  CAIN.ueD2DTx[3].nic.mac  receivedPacketFromUpperLayer:vector(packetBytes)  ETV
attr interpolationmode  none
attr source  receivedPacketFromUpperLayer
vector 181  CAIN.ueD2DTx[3].nic.mac  sentPacketToLowerLayer:vector(packetBytes)  ETV
attr interpolationmode  none
attr source  sentPacketToLowerLayer
vector 87  CAIN.eNodeB.nic.mac  sentPacketToLowerLayer:vector(packetBytes)  ETV
attr interpolationmode  none
attr source  sentPacketToLowerLayer
vector 116  CAIN.ueD2DTx[0].nic.mac  receivedPacketFromLowerLayer:vector(packetBytes)  ETV
attr interpolationmode  none
attr source  receivedPacketFromLowerLayer
vector 118  CAIN.ueD2DTx[0].nic.mac  sentPacketToLowerLayer:vector(packetBytes)  ETV
attr interpolationmode  none
attr source  sentPacketToLowerLayer
vector 179  CAIN.ueD2DTx[3].nic.mac  receivedPacketFromLowerLayer:vector(packetBytes)  ETV
attr interpolationmode  none
attr source  receivedPacketFromLowerLayer
vector 158  CAIN.ueD2DTx[2].nic.mac  receivedPacketFromLowerLayer:vector(packetBytes)  ETV
attr interpolationmode  none
attr source  receivedPacketFromLowerLayer
vector 160  CAIN.ueD2DTx[2].nic.mac  sentPacketToLowerLayer:vector(packetBytes)  ETV
attr interpolationmode  none
attr source  sentPacketToLowerLayer
vector 180  CAIN.ueD2DTx[3].nic.mac  sentPacketToUpperLayer:vector(packetBytes)  ETV
attr interpolationmode  none
attr source  sentPacketToUpperLayer
vector 137  CAIN.ueD2DTx[1].nic.mac  receivedPacketFromLowerLayer:vector(packetBytes)  ETV
attr interpolationmode  none
attr source  receivedPacketFromLowerLayer
vector 139  CAIN.ueD2DTx[1].nic.mac  sentPacketToLowerLayer:vector(packetBytes)  ETV
attr interpolationmode  none
attr source  sentPacketToLowerLayer
vector 93  CAIN.eNodeB.nic.phy  averageCqiUlvect:vector  ETV
attr source  averageCqiUlvect
attr title  "Average Cqi reported in UL, vector"
attr unit  cqi
vector 91  CAIN.eNodeB.nic.mac  ServedDevs:vector  ETV
attr interpolationmode  none
attr title  "# of devices served, vector"
vector 90  CAIN.eNodeB.nic.mac  DistanceSignal:vector  ETV
attr interpolationmode  none
attr title  "Distance to enb, vector"
vector 89  CAIN.eNodeB.nic.mac  CainMessage:vector  ETV
attr interpolationmode  none
attr title  "eNB received CAIN message, vector"
vector 86  CAIN.eNodeB.nic.mac  sentPacketToUpperLayer:vector(packetBytes)  ETV
attr interpolationmode  none
attr source  sentPacketToUpperLayer
vector 81  CAIN.eNodeB.nic.pdcpRrc  receivedPacketFromLowerLayer:vector(packetBytes)  ETV
attr interpolationmode  none
attr source  receivedPacketFromLowerLayer
vector 82  CAIN.eNodeB.nic.pdcpRrc  sentPacketToUpperLayer:vector(packetBytes)  ETV
attr interpolationmode  none
attr source  sentPacketToUpperLayer
vector 80  CAIN.eNodeB.nic.pdcpRrc  receivedPacketFromUpperLayer:vector(packetBytes)  ETV
attr interpolationmode  none
attr source  receivedPacketFromUpperLayer
vector 83  CAIN.eNodeB.nic.pdcpRrc  sentPacketToLowerLayer:vector(packetBytes)  ETV
attr interpolationmode  none
attr source  sentPacketToLowerLayer
vector 84  CAIN.eNodeB.nic.mac  receivedPacketFromUpperLayer:vector(packetBytes)  ETV
attr interpolationmode  none
attr source  receivedPacketFromUpperLayer
vector 88  CAIN.eNodeB.nic.mac  measuredItbs:vector  ETV
attr source  measuredItbs
attr title  "TBS index, vector"
attr unit  ""
vector 123  CAIN.ueD2DTx[0].nic.phy  averageCqiDlvect:vector  ETV
attr source  averageCqiDlvect
attr title  "Average Cqi reported in DL, vector"
attr unit  cqi
vector 231  CAIN.ueD2DTx[1].tcp  tcpRcvQueueBytes  ETV
vector 218  CAIN.ueD2DTx[1].tcp  "advertised window"  ETV
vector 217  CAIN.ueD2DTx[1].tcp  "receive window"  ETV
vector 220  CAIN.ueD2DTx[1].tcp  "sent ack"  ETV
vector 132  CAIN.ueD2DTx[1].nic.pdcpRrc  receivedPacketFromUpperLayer:vector(packetBytes)  ETV
attr interpolationmode  none
attr source  receivedPacketFromUpperLayer
vector 135  CAIN.ueD2DTx[1].nic.pdcpRrc  sentPacketToLowerLayer:vector(packetBytes)  ETV
attr interpolationmode  none
attr source  sentPacketToLowerLayer
vector 136  CAIN.ueD2DTx[1].nic.mac  receivedPacketFromUpperLayer:vector(packetBytes)  ETV
attr interpolationmode  none
attr source  receivedPacketFromUpperLayer
vector 117  CAIN.ueD2DTx[0].nic.mac  sentPacketToUpperLayer:vector(packetBytes)  ETV
attr interpolationmode  none
attr source  sentPacketToUpperLayer
vector 112  CAIN.ueD2DTx[0].nic.pdcpRrc  receivedPacketFromLowerLayer:vector(packetBytes)  ETV
attr interpolationmode  none
attr source  receivedPacketFromLowerLayer
vector 113  CAIN.ueD2DTx[0].nic.pdcpRrc  sentPacketToUpperLayer:vector(packetBytes)  ETV
attr interpolationmode  none
attr source  sentPacketToUpperLayer
vector 255  CAIN.ueD2DTx[0].tcp  tcpRcvQueueBytes  ETV
vector 242  CAIN.ueD2DTx[0].tcp  "advertised window"  ETV
vector 241  CAIN.ueD2DTx[0].tcp  "receive window"  ETV
vector 244  CAIN.ueD2DTx[0].tcp  "sent ack"  ETV
vector 111  CAIN.ueD2DTx[0].nic.pdcpRrc  receivedPacketFromUpperLayer:vector(packetBytes)  ETV
attr interpolationmode  none
attr source  receivedPacketFromUpperLayer
vector 114  CAIN.ueD2DTx[0].nic.pdcpRrc  sentPacketToLowerLayer:vector(packetBytes)  ETV
attr interpolationmode  none
attr source  sentPacketToLowerLayer
vector 115  CAIN.ueD2DTx[0].nic.mac  receivedPacketFromUpperLayer:vector(packetBytes)  ETV
attr interpolationmode  none
attr source  receivedPacketFromUpperLayer
vector 186  CAIN.ueD2DTx[3].nic.phy  averageCqiDlvect:vector  ETV
attr source  averageCqiDlvect
attr title  "Average Cqi reported in DL, vector"
attr unit  cqi
vector 279  CAIN.ueD2DTx[2].tcp  tcpRcvQueueBytes  ETV
vector 266  CAIN.ueD2DTx[2].tcp  "advertised window"  ETV
vector 265  CAIN.ueD2DTx[2].tcp  "receive window"  ETV
vector 268  CAIN.ueD2DTx[2].tcp  "sent ack"  ETV
vector 153  CAIN.ueD2DTx[2].nic.pdcpRrc  receivedPacketFromUpperLayer:vector(packetBytes)  ETV
attr interpolationmode  none
attr source  receivedPacketFromUpperLayer
vector 156  CAIN.ueD2DTx[2].nic.pdcpRrc  sentPacketToLowerLayer:vector(packetBytes)  ETV
attr interpolationmode  none
attr source  sentPacketToLowerLayer
vector 157  CAIN.ueD2DTx[2].nic.mac  receivedPacketFromUpperLayer:vector(packetBytes)  ETV
attr interpolationmode  none
attr source  receivedPacketFromUpperLayer
vector 175  CAIN.ueD2DTx[3].nic.pdcpRrc  receivedPacketFromLowerLayer:vector(packetBytes)  ETV
attr interpolationmode  none
attr source  receivedPacketFromLowerLayer
vector 176  CAIN.ueD2DTx[3].nic.pdcpRrc  sentPacketToUpperLayer:vector(packetBytes)  ETV
attr interpolationmode  none
attr source  sentPacketToUpperLayer
vector 159  CAIN.ueD2DTx[2].nic.mac  sentPacketToUpperLayer:vector(packetBytes)  ETV
attr interpolationmode  none
attr source  sentPacketToUpperLayer
8	13079 8 0 0 0 0 1 0 0 0 0
9	13087 8 0 0 0 0 1 0 0 0 0
24	13095 9 0 0 0 0 1 0 0 0 0
25	13104 9 0 0 0 0 1 0 0 0 0
35	13113 9 0 0 0 0 1 0 0 0 0
36	13122 9 0 0 0 0 1 0 0 0 0
56	13131 9 0 0 0 0 1 0 0 0 0
57	13140 9 0 0 0 0 1 0 0 0 0
67	13149 9 0 0 0 0 1 0 0 0 0
68	13158 9 0 0 0 0 1 0 0 0 0
80	13167 160 423 162537 0.038 9.073 9 44 44 396 17424
81	13327 160 418 162532 0.038 9.073 9 45 45 405 18225
82	13487 160 418 162532 0.038 9.073 9 44 44 396 17424
83	13647 160 423 162537 0.038 9.073 9 45 45 405 18225
84	13807 320 426 162558 0.038 9.074 18 45 47 828 38106
85	14127 252672 48 179132 0.002 10 14687 0 0 0 0
86	266799 311 414 162554 0.038 9.074 18 0 47 423 19881
87	267110 103551 311 179117 0.031 10 6021 0 0 0 0
88	370661 160 440 162554 0.039 9.074 9 26 26 234 6084
89	370821 120089 386 179132 0.035 10 6000 1 6000 18003000 72018001000
90	490910 109196 386 179132 0.035 10 6000 50 50 300000 15000000
91	600106 103196 386 179132 0.035 10 6000 1 3 17997 53987
93	703302 157 380 162464 0.035 9.07 9 13 15 129 1857
98	703459 9 0 0 0 0 1 0 0 0 0
99	703468 9 0 0 0 0 1 0 0 0 0
111	703477 83 666 162021 0.052847558425 9.052847558425 3 44 44 132 5808
112	703560 113 494 162642 0.043 9.078 6 45 45 270 12150
113	703673 113 494 162642 0.043 9.078 6 44 44 264 11616
114	703786 83 666 162021 0.052847558425 9.052847558425 3 45 45 135 6075
115	703869 139 669 162130 0.052847558425 9.057 6 45 47 276 12702
116	704008 181878 330 179128 0.032 10 10014 0 0 0 0
117	885886 166 490 162638 0.043 9.078 9 0 47 282 13254
118	886052 217556 330 179128 0.032 10 12015 0 0 0 0
123	1103608 110 459 162589 0.04 9.075 6 15 15 90 1350
126	1103718 10 0 0 0 0 1 1 1 1 1
132	1103728 83 481 161825 0.042969444403 9.042969444403 3 44 44 132 5808
135	1103811 83 481 161825 0.042969444403 9.042969444403 3 45 45 135 6075
136	1103894 83 484 161828 0.042969444403 9.042969444403 3 45 45 135 6075
137	1103977 73384 366 179074 0.034 9.997 3991 0 0 0 0
139	1177361 73402 366 179084 0.034 9.998 3992 0 0 0 0
147	1250763 10 0 0 0 0 1 1 1 1 1
153	1250773 83 959 162313 0.064453871725 9.064453871725 3 44 44 132 5808
156	1250856 83 959 162313 0.064453871725 9.064453871725 3 45 45 135 6075
157	1250939 140 962 162436 0.064453871725 9.069 6 45 47 276 12702
158	1251079 110422 345 179098 0.033 9.998 6006 0 0 0 0
159	1361501 54 1078 162432 0.069 9.069 3 0 0 0 0
160	1361555 110421 345 179098 0.033 9.998 6006 0 0 0 0
168	1471976 10 0 0 0 0 1 1 1 1 1
174	1471986 83 285 161507 0.029794597295 9.029794597295 3 44 44 132 5808
175	1472069 56 992 162346 0.066 9.066 3 45 45 135 6075
176	1472125 56 992 162346 0.066 9.066 3 44 44 132 5808
177	1472181 83 285 161507 0.029794597295 9.029794597295 3 45 45 135 6075
178	1472264 139 288 161622 0.029794597295 9.034 6 45 47 276 12702
179	1472403 36931 343 179060 0.033 9.996 2009 0 0 0 0
180	1509334 109 357 162342 0.034 9.066 6 0 47 141 6627
181	1509443 36928 297 179060 0.03 9.996 2009 0 0 0 0
186	1546371 56 933 162288 0.063 9.063 3 15 15 45 675
189	1546427 10 0 0 0 0 1 1 1 1 1
193	1546437 89 282 161504 0.029794597295 9.029794597295 3 7504 7504 22512 168930048
194	1546526 89 282 161504 0.029794597295 9.029794597295 3 7504 7504 22512 168930048
196	1546615 80 282 161504 0.029794597295 9.029794597295 3 0 0 0 0
207	1546695 80 282 161504 0.029794597295 9.029794597295 3 0 0 0 0
217	1546775 89 478 161822 0.042969444403 9.042969444403 3 7504 7504 22512 168930048
218	1546864 89 478 161822 0.042969444403 9.042969444403 3 7504 7504 22512 168930048
220	1546953 80 478 161822 0.042969444403 9.042969444403 3 0 0 0 0
231	1547033 80 478 161822 0.042969444403 9.042969444403 3 0 0 0 0
241	1547113 89 663 162018 0.052847558425 9.052847558425 3 7504 7504 22512 168930048
242	1547202 89 663 162018 0.052847558425 9.052847558425 3 7504 7504 22512 168930048
244	1547291 80 663 162018 0.052847558425 9.052847558425 3 0 0 0 0
255	1547371 80 663 162018 0.052847558425 9.052847558425 3 0 0 0 0
265	1547451 89 956 162310 0.064453871725 9.064453871725 3 7504 7504 22512 168930048
266	1547540 89 956 162310 0.064453871725 9.064453871725 3 7504 7504 22512 168930048
268	1547629 80 956 162310 0.064453871725 9.064453871725 3 0 0 0 0
279	1547709 80 956 162310 0.064453871725 9.064453871725 3 0 0 0 0
