file 223285 1563911628                                          
version 2
run CAIN-0-20190723-16:53:42-13258
attr configname CAIN
attr datetime 20190723-16:53:42
attr experiment CAIN
attr inifile omnetpp.ini
attr iterationvars ""
attr iterationvars2 $repetition=0
attr measurement ""
attr network lte.simulations.networks.CAIN
attr processid 13258
attr repetition 0
attr replication #0
attr resultdir results
attr runnumber 0
attr seedset 0
param **.**.amcMode "\"AUTO\""
param **.amcMode "\"D2D\""
param **.channelControl.alpha 1.0
param **.channelControl.carrierFrequency 2100e+6Hz
param **.channelControl.pMax 10W
param **.d2dCqi 7
param **.deployer.numRbDl 50
param **.deployer.numRbUl 50
param **.fbDelay 1
param **.feedbackComputation "xmldoc(\"config_channel.xml\")"
param **.mobility.constraintAreaMaxZ 0m
param **.mobility.constraintAreaMinZ 0m
param **.nic.phy.channelModel "xmldoc(\"config_channel.xml\")"
param **.numBands 50
param **.rbAllocationType "\"localized\""
param **.routingRecorder.enabled false
param **.tcpApp[*].tClose -1s
param **.usePreconfiguredTxParams false
param *.eNodeB.d2dCapable false
param *.eNodeB.mobility.initFromDisplayString false
param *.eNodeB.mobility.initialX 300m
param *.eNodeB.mobility.initialY 300m
param *.eNodeB.nic.phy.enableD2DCqiReporting true
param *.numUeCell 0
param *.numUeD2DRx 1
param *.numUeD2DTx 1
param *.ue*[0].macCellId 1
param *.ue*[0].masterId 1
param *.ue*[0].mobility.initFromDisplayString false
param *.ueD2D*[*].d2dCapable true
param *.ueD2D*[0].d2dCapable false
param *.ueD2D*[0].numTcpApps 1
param *.ueD2DRx[0].mobility.initialX 310m
param *.ueD2DRx[0].mobility.initialY 350m
param *.ueD2DRx[0].nic.d2dPeerAddresses "\"ueD2DTx[0]\""
param *.ueD2DRx[0].tcpApp[*].localPort 1000
param *.ueD2DRx[0].tcpApp[*].typename "\"TCPSinkApp\""
param *.ueD2DTx[0].mobility.initialX 290m
param *.ueD2DTx[0].mobility.initialY 350m
param *.ueD2DTx[0].nic.d2dPeerAddresses "\"ueD2DRx[0]\""
param *.ueD2DTx[0].tcpApp[*].localPort 1000
param *.ueD2DTx[0].tcpApp[*].sendBytes 1GiB
param *.ueD2DTx[0].tcpApp[*].typename "\"TCPSessionApp\""
param *.ueD2DTx[0].tcpApp[0].active true
param *.ueD2DTx[0].tcpApp[0].connectAddress "\"ueD2DRx[0]\""
param *.ueD2DTx[0].tcpApp[0].connectPort 1000
param *.ueD2DTx[0].tcpApp[0].localAddress "\"ueD2DTx[0]\""
param *.ueD2DTx[0].tcpApp[0].tOpen uniform(0.010s,0.1s)
param *.ueD2DTx[0].tcpApp[0].tSend uniform(0.15s,0.5s)

vector 8  CAIN.server.ppp[0].queue  queueLength:vector  ETV
attr interpolationmode  sample-hold
attr title  "queue length, vector"
vector 9  CAIN.server.ppp[0].ppp  txState:vector  ETV
attr interpolationmode  sample-hold
attr title  "tx state, vector"
vector 24  CAIN.router.ppp[0].queue  queueLength:vector  ETV
attr interpolationmode  sample-hold
attr title  "queue length, vector"
vector 25  CAIN.router.ppp[0].ppp  txState:vector  ETV
attr interpolationmode  sample-hold
attr title  "tx state, vector"
vector 35  CAIN.router.ppp[1].queue  queueLength:vector  ETV
attr interpolationmode  sample-hold
attr title  "queue length, vector"
vector 36  CAIN.router.ppp[1].ppp  txState:vector  ETV
attr interpolationmode  sample-hold
attr title  "tx state, vector"
vector 56  CAIN.pgw.ppp[0].queue  queueLength:vector  ETV
attr interpolationmode  sample-hold
attr title  "queue length, vector"
vector 57  CAIN.pgw.ppp[0].ppp  txState:vector  ETV
attr interpolationmode  sample-hold
attr title  "tx state, vector"
vector 67  CAIN.pgw.pppInterface.queue  queueLength:vector  ETV
attr interpolationmode  sample-hold
attr title  "queue length, vector"
vector 68  CAIN.pgw.pppInterface.ppp  txState:vector  ETV
attr interpolationmode  sample-hold
attr title  "tx state, vector"
vector 96  CAIN.eNodeB.pppIf.queue  queueLength:vector  ETV
attr interpolationmode  sample-hold
attr title  "queue length, vector"
vector 97  CAIN.eNodeB.pppIf.ppp  txState:vector  ETV
attr interpolationmode  sample-hold
attr title  "tx state, vector"
vector 122  CAIN.ueD2DTx[0].nic.phy  servingCell:vector  ETV
attr source  servingCell
attr title  "ID of the serving eNodeB for the UE, vector"
attr unit  ""
vector 140  CAIN.ueD2DRx[0].nic.phy  servingCell:vector  ETV
attr source  servingCell
attr title  "ID of the serving eNodeB for the UE, vector"
attr unit  ""
vector 85  CAIN.eNodeB.nic.mac  receivedPacketFromLowerLayer:vector(packetBytes)  ETV
attr interpolationmode  none
attr source  receivedPacketFromLowerLayer
vector 182  CAIN.ueD2DTx[0].tcp  tcpRcvQueueBytes  ETV
vector 169  CAIN.ueD2DTx[0].tcp  "advertised window"  ETV
vector 168  CAIN.ueD2DTx[0].tcp  "receive window"  ETV
vector 171  CAIN.ueD2DTx[0].tcp  "sent ack"  ETV
vector 109  CAIN.ueD2DTx[0].nic.pdcpRrc  receivedPacketFromUpperLayer:vector(packetBytes)  ETV
attr interpolationmode  none
attr source  receivedPacketFromUpperLayer
vector 112  CAIN.ueD2DTx[0].nic.pdcpRrc  sentPacketToLowerLayer:vector(packetBytes)  ETV
attr interpolationmode  none
attr source  sentPacketToLowerLayer
vector 113  CAIN.ueD2DTx[0].nic.mac  receivedPacketFromUpperLayer:vector(packetBytes)  ETV
attr interpolationmode  none
attr source  receivedPacketFromUpperLayer
vector 116  CAIN.ueD2DTx[0].nic.mac  sentPacketToLowerLayer:vector(packetBytes)  ETV
attr interpolationmode  none
attr source  sentPacketToLowerLayer
vector 87  CAIN.eNodeB.nic.mac  sentPacketToLowerLayer:vector(packetBytes)  ETV
attr interpolationmode  none
attr source  sentPacketToLowerLayer
vector 114  CAIN.ueD2DTx[0].nic.mac  receivedPacketFromLowerLayer:vector(packetBytes)  ETV
attr interpolationmode  none
attr source  receivedPacketFromLowerLayer
vector 91  CAIN.eNodeB.nic.phy  averageCqiUlvect:vector  ETV
attr source  averageCqiUlvect
attr title  "Average Cqi reported in UL, vector"
attr unit  cqi
vector 88  CAIN.eNodeB.nic.mac  measuredItbs:vector  ETV
attr source  measuredItbs
attr title  "TBS index, vector"
attr unit  ""
vector 115  CAIN.ueD2DTx[0].nic.mac  sentPacketToUpperLayer:vector(packetBytes)  ETV
attr interpolationmode  none
attr source  sentPacketToUpperLayer
vector 139  CAIN.ueD2DRx[0].nic.phy  averageCqiD2Dvect:vector  ETV
attr source  averageCqiD2Dvect
attr title  "Average Cqi reported in D2D, vector"
attr unit  cqi
vector 132  CAIN.ueD2DRx[0].nic.mac  receivedPacketFromLowerLayer:vector(packetBytes)  ETV
attr interpolationmode  none
attr source  receivedPacketFromLowerLayer
vector 134  CAIN.ueD2DRx[0].nic.mac  sentPacketToLowerLayer:vector(packetBytes)  ETV
attr interpolationmode  none
attr source  sentPacketToLowerLayer
vector 133  CAIN.ueD2DRx[0].nic.mac  sentPacketToUpperLayer:vector(packetBytes)  ETV
attr interpolationmode  none
attr source  sentPacketToUpperLayer
vector 128  CAIN.ueD2DRx[0].nic.pdcpRrc  receivedPacketFromLowerLayer:vector(packetBytes)  ETV
attr interpolationmode  none
attr source  receivedPacketFromLowerLayer
vector 129  CAIN.ueD2DRx[0].nic.pdcpRrc  sentPacketToUpperLayer:vector(packetBytes)  ETV
attr interpolationmode  none
attr source  sentPacketToUpperLayer
vector 148  CAIN.ueD2DRx[0].tcp  "rcvd seq"  ETV
vector 149  CAIN.ueD2DRx[0].tcp  "rcvd ack"  ETV
vector 145  CAIN.ueD2DRx[0].tcp  "advertised window"  ETV
vector 143  CAIN.ueD2DRx[0].tcp  "send window"  ETV
vector 158  CAIN.ueD2DRx[0].tcp  tcpRcvQueueBytes  ETV
vector 144  CAIN.ueD2DRx[0].tcp  "receive window"  ETV
vector 147  CAIN.ueD2DRx[0].tcp  "sent ack"  ETV
vector 127  CAIN.ueD2DRx[0].nic.pdcpRrc  receivedPacketFromUpperLayer:vector(packetBytes)  ETV
attr interpolationmode  none
attr source  receivedPacketFromUpperLayer
vector 130  CAIN.ueD2DRx[0].nic.pdcpRrc  sentPacketToLowerLayer:vector(packetBytes)  ETV
attr interpolationmode  none
attr source  sentPacketToLowerLayer
vector 131  CAIN.ueD2DRx[0].nic.mac  receivedPacketFromUpperLayer:vector(packetBytes)  ETV
attr interpolationmode  none
attr source  receivedPacketFromUpperLayer
vector 156  CAIN.ueD2DRx[0].tcp  "rcvd naseg"  ETV
8	7776 8 0 0 0 0 1 0 0 0 0
9	7784 8 0 0 0 0 1 0 0 0 0
24	7792 9 0 0 0 0 1 0 0 0 0
25	7801 9 0 0 0 0 1 0 0 0 0
35	7810 9 0 0 0 0 1 0 0 0 0
36	7819 9 0 0 0 0 1 0 0 0 0
56	7828 9 0 0 0 0 1 0 0 0 0
57	7837 9 0 0 0 0 1 0 0 0 0
67	7846 9 0 0 0 0 1 0 0 0 0
68	7855 9 0 0 0 0 1 0 0 0 0
85	7864 60732 35 42617 0.002 5 3649 0 0 0 0
87	68596 49294 322 42609 0.054 5 2975 0 0 0 0
88	117890 64 374 26077 0.061 3.066 4 0 0 0 0
91	117954 16595 354 42598 0.058 4.998 990 2 15 2032 4844
96	134549 9 0 0 0 0 1 0 0 0 0
97	134558 9 0 0 0 0 1 0 0 0 0
109	134567 54 306 25922 0.052847558425 3.052847558425 2 44 44 88 3872
112	134621 54 306 25922 0.052847558425 3.052847558425 2 45 45 90 4050
113	134675 90 309 26049 0.052847558425 3.063 4 45 47 184 8468
114	134765 304 332 26131 0.055 3.068 18 0 0 0 0
115	135069 34 397 26045 0.063 3.063 2 0 0 0 0
116	135103 170 311 26053 0.053 3.063 10 0 0 0 0
122	135273 10 0 0 0 0 1 1 1 1 1
127	135283 55 440 26107 0.067 3.067 3 40 44 128 5472
128	135338 36 434 26101 0.067 3.067 2 45 45 90 4050
129	135374 36 434 26101 0.067 3.067 2 44 44 88 3872
130	135410 55 440 26107 0.067 3.067 3 41 45 131 5731
131	135465 55 443 26110 0.067 3.067 3 41 45 131 5731
132	135520 52017 413 42619 0.064 5 2960 0 0 0 0
133	187537 36 430 26097 0.067 3.067 2 47 47 94 4418
134	187573 35074 430 42595 0.067 4.998 1975 0 0 0 0
139	222647 34 412 26066 0.064 3.064 2 2 2 4 8
140	222681 10 0 0 0 0 1 1 1 1 1
143	222691 19 437 437 0.067 0.067 1 7504 7504 7504 56310016
144	222710 61 437 26104 0.067 3.067 3 7504 7504 22512 168930048
145	222771 84 437 26104 0.067 3.067 4 20716 20716 82864 1716610624
147	222855 64 437 26104 0.067 3.067 3 13212 13212 39636 523670832
148	222919 42 437 26104 0.067 3.067 2 13211 13211 26422 349061042
149	222961 34 437 26104 0.067 3.067 2 0 0 0 0
156	222995 18 26104 26104 3.067 3.067 1 1 1 1 1
158	223013 52 437 26104 0.067 3.067 3 0 0 0 0
168	223065 58 303 25919 0.052847558425 3.052847558425 2 7504 7504 15008 112620032
169	223123 58 303 25919 0.052847558425 3.052847558425 2 7504 7504 15008 112620032
171	223181 52 303 25919 0.052847558425 3.052847558425 2 0 0 0 0
182	223233 52 303 25919 0.052847558425 3.052847558425 2 0 0 0 0
