file 7170359 1588967288                                         
version 2
run CAIN-1-20200508-16:36:39-13332
attr configname CAIN
attr datetime 20200508-16:36:39
attr dist 200
attr experiment CAIN
attr inifile omnetpp.ini
attr iterationvars "$numUe=20, $pwr=-50, $dist=200, $mob=\"./movements/RWP-0.0.movements\""
attr iterationvars2 "$numUe=20, $pwr=-50, $dist=200, $mob=\"./movements/RWP-0.0.movements\", $repetition=1"
attr measurement "$numUe=20, $pwr=-50, $dist=200, $mob=\"./movements/RWP-0.0.movements\""
attr mob "\"./movements/RWP-0.0.movements\""
attr network lte.simulations.networks.CAIN
attr numUe 20
attr processid 13332
attr pwr -50
attr repetition 1
attr replication #1
attr resultdir results
attr runnumber 1
attr seedset 1
param **.**.amcMode "\"AUTO\""
param **.amcMode "\"D2D\""
param **.cainNetwork true
param **.channelControl.alpha 1.0
param **.channelControl.carrierFrequency 2100e+6Hz
param **.channelControl.pMax 10W
param **.d2dCqi 7
param **.deployer.numRbDl 50
param **.deployer.numRbUl 50
param **.distThresh ${dist=200}
param **.fbDelay 1
param **.feedbackComputation "xmldoc(\"config_channel.xml\")"
param **.mobility.constraintAreaMaxX 1000m
param **.mobility.constraintAreaMaxY 1000m
param **.mobility.constraintAreaMaxZ 0m
param **.mobility.constraintAreaMinX 0m
param **.mobility.constraintAreaMinY 0m
param **.mobility.constraintAreaMinZ 0m
param **.nic.phy.channelModel "xmldoc(\"config_channel.xml\")"
param **.numBands 50
param **.pwrThresh "${pwr= -50}"
param **.qtdThresh 3
param **.rbAllocationType "\"localized\""
param **.routingRecorder.enabled false
param **.tcpApp[*].tClose -1s
param **.ueD2DTx[*].mobility.changeAngleBy "normal(0deg, 30deg)"
param **.ueD2DTx[*].mobility.changeInterval "normal(5s, 0.1s)"
param **.ueD2DTx[*].mobility.nodeId -1
param **.ueD2DTx[*].mobility.speed "normal(2mps, 0.01mps)"
param **.ueD2DTx[*].mobility.traceFile "${mob=\"./movements/RWP-0.0.movements\",\"./movements/RWP-0.5.movements\",\"./movements/RPGM-0.0.movements\",\"./movements/RPGM-0.5.movements\",\"./movements/RWPRPGM-0.0.movements\",\"./movements/RWPRPGM-0.5.movements\"}"
param **.ueD2DTx[*].mobilityType "\"BonnMotionMobility\""
param **.usePreconfiguredTxParams false
param *.eNodeB*.numX2Apps 1
param *.eNodeB*.x2App[*].server.localPort "5000 + ancestorIndex(1)"
param *.eNodeB.d2dCapable false
param *.eNodeB.mobility.initFromDisplayString false
param *.eNodeB.mobility.initialX 300m
param *.eNodeB.mobility.initialY 300m
param *.eNodeB.nic.phy.enableD2DCqiReporting true
param *.eNodeB.txPower 19952.62315mw
param *.eNodeB.x2App[0].client.connectAddress "\"eNodeB1%x2ppp0\""
param *.eNodeB1.d2dCapable true
param *.eNodeB1.mobility.initFromDisplayString false
param *.eNodeB1.mobility.initialX 700m
param *.eNodeB1.mobility.initialY 300m
param *.eNodeB1.nic.phy.enableD2DCqiReporting true
param *.eNodeB1.txPower 19952.62315mw
param *.eNodeB1.x2App[0].client.connectAddress "\"eNodeB%x2ppp0\""
param *.extCell[*].bandAllocationType "\"FULL_ALLOC\""
param *.extCell[*].bandUtilization 0.5
param *.extCell[*].txDirection "\"ANISOTROPIC\""
param *.extCell[*].txPower 20
param *.extCell[0].position_x 100m
param *.extCell[0].position_y 600m
param *.extCell[0].txAngle 315
param *.extCell[1].position_x 600m
param *.extCell[1].position_y 600m
param *.extCell[1].txAngle 225
param *.numExtCells 2
param *.numUeCell 0
param *.numUeD2DRx 1
param *.numUeD2DTx 1
param *.ue*.macCellId 1
param *.ue*.masterId 1
param *.ue*.mobility.initFromDisplayString false
param *.ue*[0].macCellId 1
param *.ue*[0].masterId 1
param *.ue*[0].mobility.initFromDisplayString false
param *.ueD2D*.numTcpApps 1
param *.ueD2D*[*].d2dCapable true
param *.ueD2D*[0].d2dCapable false
param *.ueD2D*[0].numTcpApps 1
param *.ueD2DRx[0].mobility.initialX 310m
param *.ueD2DRx[0].mobility.initialY 350m
param *.ueD2DRx[0].tcpApp[*].localPort 1000
param *.ueD2DRx[0].tcpApp[*].typename "\"TCPSinkApp\""
param *.ueD2DTx*.nic.d2dPeerAddresses "\"ueD2DTx[1]\""
param *.ueD2DTx*.tcpApp[*].connectAddress "\"ueD2DTx[0]\""
param *.ueD2DTx*.tcpApp[*].localAddress "\"ueD2DTx\""
param *.ueD2DTx*.tcpApp[*].localPort 1000
param *.ueD2DTx*.tcpApp[*].sendBytes 1GiB
param *.ueD2DTx*.tcpApp[*].typename "\"TCPSessionApp\""
param *.ueD2DTx*.tcpApp[0].active true
param *.ueD2DTx*.tcpApp[0].connectPort 1000
param *.ueD2DTx*.tcpApp[0].tOpen uniform(0.010s,0.1s)
param *.ueD2DTx*.tcpApp[0].tSend uniform(0.15s,0.5s)
param *.ueD2DTx[0].mobility.initialX 290m
param *.ueD2DTx[0].mobility.initialY 350m
param *.ueD2DTx[0].tcpApp[*].localPort 1000
param *.ueD2DTx[0].tcpApp[*].sendBytes 1GiB
param *.ueD2DTx[0].tcpApp[*].typename "\"TCPSessionApp\""
param *.ueD2DTx[0].tcpApp[0].active true
param *.ueD2DTx[0].tcpApp[0].connectAddress "\"ueD2DRx[0]\""
param *.ueD2DTx[0].tcpApp[0].connectPort 1000
param *.ueD2DTx[0].tcpApp[0].localAddress "\"ueD2DTx[0]\""
param *.ueD2DTx[0].tcpApp[0].tOpen uniform(0.010s,0.1s)
param *.ueD2DTx[0].tcpApp[0].tSend uniform(0.15s,0.5s)
param *.ueD2DTx[1].mobility.initialX 690m
param *.ueD2DTx[1].mobility.initialY 250m

vector 8  CAIN.server.ppp[0].queue  queueLength:vector  ETV
attr interpolationmode  sample-hold
attr title  "queue length, vector"
vector 9  CAIN.server.ppp[0].ppp  txState:vector  ETV
attr interpolationmode  sample-hold
attr title  "tx state, vector"
vector 24  CAIN.router.ppp[0].queue  queueLength:vector  ETV
attr interpolationmode  sample-hold
attr title  "queue length, vector"
vector 25  CAIN.router.ppp[0].ppp  txState:vector  ETV
attr interpolationmode  sample-hold
attr title  "tx state, vector"
vector 35  CAIN.router.ppp[1].queue  queueLength:vector  ETV
attr interpolationmode  sample-hold
attr title  "queue length, vector"
vector 36  CAIN.router.ppp[1].ppp  txState:vector  ETV
attr interpolationmode  sample-hold
attr title  "tx state, vector"
vector 56  CAIN.pgw.ppp[0].queue  queueLength:vector  ETV
attr interpolationmode  sample-hold
attr title  "queue length, vector"
vector 57  CAIN.pgw.ppp[0].ppp  txState:vector  ETV
attr interpolationmode  sample-hold
attr title  "tx state, vector"
vector 67  CAIN.pgw.ppp[1].queue  queueLength:vector  ETV
attr interpolationmode  sample-hold
attr title  "queue length, vector"
vector 68  CAIN.pgw.ppp[1].ppp  txState:vector  ETV
attr interpolationmode  sample-hold
attr title  "tx state, vector"
vector 78  CAIN.pgw.pppInterface.queue  queueLength:vector  ETV
attr interpolationmode  sample-hold
attr title  "queue length, vector"
vector 79  CAIN.pgw.pppInterface.ppp  txState:vector  ETV
attr interpolationmode  sample-hold
attr title  "tx state, vector"
vector 120  CAIN.eNodeB.pppIf.queue  queueLength:vector  ETV
attr interpolationmode  sample-hold
attr title  "queue length, vector"
vector 121  CAIN.eNodeB.pppIf.ppp  txState:vector  ETV
attr interpolationmode  sample-hold
attr title  "tx state, vector"
vector 131  CAIN.eNodeB.x2ppp[0].queue  queueLength:vector  ETV
attr interpolationmode  sample-hold
attr title  "queue length, vector"
vector 132  CAIN.eNodeB.x2ppp[0].ppp  txState:vector  ETV
attr interpolationmode  sample-hold
attr title  "tx state, vector"
vector 178  CAIN.eNodeB1.pppIf.queue  queueLength:vector  ETV
attr interpolationmode  sample-hold
attr title  "queue length, vector"
vector 179  CAIN.eNodeB1.pppIf.ppp  txState:vector  ETV
attr interpolationmode  sample-hold
attr title  "tx state, vector"
vector 189  CAIN.eNodeB1.x2ppp[0].queue  queueLength:vector  ETV
attr interpolationmode  sample-hold
attr title  "queue length, vector"
vector 190  CAIN.eNodeB1.x2ppp[0].ppp  txState:vector  ETV
attr interpolationmode  sample-hold
attr title  "tx state, vector"
vector 231  CAIN.ueD2DTx[0].nic.phy  servingCell:vector  ETV
attr source  servingCell
attr title  "ID of the serving eNodeB for the UE, vector"
attr unit  ""
vector 263  CAIN.ueD2DTx[1].nic.phy  servingCell:vector  ETV
attr source  servingCell
attr title  "ID of the serving eNodeB for the UE, vector"
attr unit  ""
vector 295  CAIN.ueD2DTx[2].nic.phy  servingCell:vector  ETV
attr source  servingCell
attr title  "ID of the serving eNodeB for the UE, vector"
attr unit  ""
vector 327  CAIN.ueD2DTx[3].nic.phy  servingCell:vector  ETV
attr source  servingCell
attr title  "ID of the serving eNodeB for the UE, vector"
attr unit  ""
vector 359  CAIN.ueD2DTx[4].nic.phy  servingCell:vector  ETV
attr source  servingCell
attr title  "ID of the serving eNodeB for the UE, vector"
attr unit  ""
vector 391  CAIN.ueD2DTx[5].nic.phy  servingCell:vector  ETV
attr source  servingCell
attr title  "ID of the serving eNodeB for the UE, vector"
attr unit  ""
vector 423  CAIN.ueD2DTx[6].nic.phy  servingCell:vector  ETV
attr source  servingCell
attr title  "ID of the serving eNodeB for the UE, vector"
attr unit  ""
vector 455  CAIN.ueD2DTx[7].nic.phy  servingCell:vector  ETV
attr source  servingCell
attr title  "ID of the serving eNodeB for the UE, vector"
attr unit  ""
vector 487  CAIN.ueD2DTx[8].nic.phy  servingCell:vector  ETV
attr source  servingCell
attr title  "ID of the serving eNodeB for the UE, vector"
attr unit  ""
vector 519  CAIN.ueD2DTx[9].nic.phy  servingCell:vector  ETV
attr source  servingCell
attr title  "ID of the serving eNodeB for the UE, vector"
attr unit  ""
vector 551  CAIN.ueD2DTx[10].nic.phy  servingCell:vector  ETV
attr source  servingCell
attr title  "ID of the serving eNodeB for the UE, vector"
attr unit  ""
vector 583  CAIN.ueD2DTx[11].nic.phy  servingCell:vector  ETV
attr source  servingCell
attr title  "ID of the serving eNodeB for the UE, vector"
attr unit  ""
vector 615  CAIN.ueD2DTx[12].nic.phy  servingCell:vector  ETV
attr source  servingCell
attr title  "ID of the serving eNodeB for the UE, vector"
attr unit  ""
vector 647  CAIN.ueD2DTx[13].nic.phy  servingCell:vector  ETV
attr source  servingCell
attr title  "ID of the serving eNodeB for the UE, vector"
attr unit  ""
vector 679  CAIN.ueD2DTx[14].nic.phy  servingCell:vector  ETV
attr source  servingCell
attr title  "ID of the serving eNodeB for the UE, vector"
attr unit  ""
vector 711  CAIN.ueD2DTx[15].nic.phy  servingCell:vector  ETV
attr source  servingCell
attr title  "ID of the serving eNodeB for the UE, vector"
attr unit  ""
vector 743  CAIN.ueD2DTx[16].nic.phy  servingCell:vector  ETV
attr source  servingCell
attr title  "ID of the serving eNodeB for the UE, vector"
attr unit  ""
vector 775  CAIN.ueD2DTx[17].nic.phy  servingCell:vector  ETV
attr source  servingCell
attr title  "ID of the serving eNodeB for the UE, vector"
attr unit  ""
vector 807  CAIN.ueD2DTx[18].nic.phy  servingCell:vector  ETV
attr source  servingCell
attr title  "ID of the serving eNodeB for the UE, vector"
attr unit  ""
vector 839  CAIN.ueD2DTx[19].nic.phy  servingCell:vector  ETV
attr source  servingCell
attr title  "ID of the serving eNodeB for the UE, vector"
attr unit  ""
vector 863  CAIN.eNodeB.sctp  "Throughput of Association 3"  ETV
vector 885  CAIN.eNodeB1.sctp  "Throughput of Association 4"  ETV
vector 907  CAIN.eNodeB.sctp  "Throughput of Association 1"  ETV
vector 927  CAIN.eNodeB.sctp  "Fast Recovery State 1:10.0.5.2"  ETV
vector 956  CAIN.eNodeB1.sctp  "Throughput of Association 2"  ETV
vector 976  CAIN.eNodeB1.sctp  "Fast Recovery State 2:10.0.5.1"  ETV
vector 128  CAIN.eNodeB.x2ppp[0].queue  rcvdPk:vector(packetBytes)  ETV
attr interpolationmode  none
attr title  "received packets, vector(packetBytes)"
vector 130  CAIN.eNodeB.x2ppp[0].queue  queueingTime:vector  ETV
attr interpolationmode  none
attr title  "queueing time, vector"
vector 186  CAIN.eNodeB1.x2ppp[0].queue  rcvdPk:vector(packetBytes)  ETV
attr interpolationmode  none
attr title  "received packets, vector(packetBytes)"
vector 188  CAIN.eNodeB1.x2ppp[0].queue  queueingTime:vector  ETV
attr interpolationmode  none
attr title  "queueing time, vector"
vector 137  CAIN.eNodeB.x2ppp[0].ppp  rcvdPkFromHL:vector(packetBytes)  ETV
attr interpolationmode  none
attr source  packetReceivedFromUpper
attr title  "packets received from higher layer, vector(packetBytes)"
vector 133  CAIN.eNodeB.x2ppp[0].ppp  txPk:vector(packetBytes)  ETV
attr interpolationmode  none
attr source  packetSentToLower
attr title  "packets transmitted, vector(packetBytes)"
vector 195  CAIN.eNodeB1.x2ppp[0].ppp  rcvdPkFromHL:vector(packetBytes)  ETV
attr interpolationmode  none
attr source  packetReceivedFromUpper
attr title  "packets received from higher layer, vector(packetBytes)"
vector 191  CAIN.eNodeB1.x2ppp[0].ppp  txPk:vector(packetBytes)  ETV
attr interpolationmode  none
attr source  packetSentToLower
attr title  "packets transmitted, vector(packetBytes)"
vector 192  CAIN.eNodeB1.x2ppp[0].ppp  rxPkOk:vector(packetBytes)  ETV
attr interpolationmode  none
attr source  rxPkOk
attr title  "packets received OK, vector(packetBytes)"
vector 196  CAIN.eNodeB1.x2ppp[0].ppp  passedUpPk:vector(packetBytes)  ETV
attr interpolationmode  none
attr source  packetSentToUpper
attr title  "packets passed to higher layer, vector(packetBytes)"
vector 134  CAIN.eNodeB.x2ppp[0].ppp  rxPkOk:vector(packetBytes)  ETV
attr interpolationmode  none
attr source  rxPkOk
attr title  "packets received OK, vector(packetBytes)"
vector 138  CAIN.eNodeB.x2ppp[0].ppp  passedUpPk:vector(packetBytes)  ETV
attr interpolationmode  none
attr source  packetSentToUpper
attr title  "packets passed to higher layer, vector(packetBytes)"
vector 1005  CAIN.eNodeB1.sctp  "Throughput of Association 4"  ETV
vector 882  CAIN.eNodeB1.sctp  "Peer Rwnd 4"  ETV
vector 1025  CAIN.eNodeB1.sctp  "Fast Recovery State 5:10.0.4.1"  ETV
vector 1052  CAIN.eNodeB1.sctp  "Fast Recovery State 5:10.0.2.2"  ETV
vector 1079  CAIN.eNodeB1.sctp  "Fast Recovery State 5:10.0.5.1"  ETV
vector 1108  CAIN.eNodeB.sctp  "Throughput of Association 3"  ETV
vector 860  CAIN.eNodeB.sctp  "Peer Rwnd 3"  ETV
vector 1128  CAIN.eNodeB.sctp  "Fast Recovery State 6:10.0.4.2"  ETV
vector 1155  CAIN.eNodeB.sctp  "Fast Recovery State 6:10.0.3.2"  ETV
vector 1182  CAIN.eNodeB.sctp  "Fast Recovery State 6:10.0.5.2"  ETV
vector 904  CAIN.eNodeB.sctp  "Peer Rwnd 1"  ETV
vector 1209  CAIN.eNodeB.sctp  "Fast Recovery State 1:10.0.4.2"  ETV
vector 1236  CAIN.eNodeB.sctp  "Fast Recovery State 1:10.0.3.2"  ETV
vector 953  CAIN.eNodeB1.sctp  "Peer Rwnd 2"  ETV
vector 1263  CAIN.eNodeB1.sctp  "Fast Recovery State 2:10.0.4.1"  ETV
vector 1290  CAIN.eNodeB1.sctp  "Fast Recovery State 2:10.0.2.2"  ETV
vector 1035  CAIN.eNodeB1.sctp  "Slow Start Threshold 5:10.0.2.2"  ETV
vector 1036  CAIN.eNodeB1.sctp  "Congestion Window 5:10.0.2.2"  ETV
vector 1037  CAIN.eNodeB1.sctp  "Bandwidth 5:10.0.2.2"  ETV
vector 1040  CAIN.eNodeB1.sctp  "HB Sent 5:10.0.2.2"  ETV
vector 1033  CAIN.eNodeB1.sctp  "RTO 5:10.0.2.2"  ETV
vector 1008  CAIN.eNodeB1.sctp  "Slow Start Threshold 5:10.0.4.1"  ETV
vector 1009  CAIN.eNodeB1.sctp  "Congestion Window 5:10.0.4.1"  ETV
vector 1010  CAIN.eNodeB1.sctp  "Bandwidth 5:10.0.4.1"  ETV
vector 1013  CAIN.eNodeB1.sctp  "HB Sent 5:10.0.4.1"  ETV
vector 1006  CAIN.eNodeB1.sctp  "RTO 5:10.0.4.1"  ETV
vector 1062  CAIN.eNodeB1.sctp  "Slow Start Threshold 5:10.0.5.1"  ETV
vector 1063  CAIN.eNodeB1.sctp  "Congestion Window 5:10.0.5.1"  ETV
vector 1064  CAIN.eNodeB1.sctp  "Bandwidth 5:10.0.5.1"  ETV
vector 1060  CAIN.eNodeB1.sctp  "RTO 5:10.0.5.1"  ETV
vector 1138  CAIN.eNodeB.sctp  "Slow Start Threshold 6:10.0.3.2"  ETV
vector 1139  CAIN.eNodeB.sctp  "Congestion Window 6:10.0.3.2"  ETV
vector 1140  CAIN.eNodeB.sctp  "Bandwidth 6:10.0.3.2"  ETV
vector 1143  CAIN.eNodeB.sctp  "HB Sent 6:10.0.3.2"  ETV
vector 1136  CAIN.eNodeB.sctp  "RTO 6:10.0.3.2"  ETV
vector 1111  CAIN.eNodeB.sctp  "Slow Start Threshold 6:10.0.4.2"  ETV
vector 1112  CAIN.eNodeB.sctp  "Congestion Window 6:10.0.4.2"  ETV
vector 1113  CAIN.eNodeB.sctp  "Bandwidth 6:10.0.4.2"  ETV
vector 1116  CAIN.eNodeB.sctp  "HB Sent 6:10.0.4.2"  ETV
vector 1109  CAIN.eNodeB.sctp  "RTO 6:10.0.4.2"  ETV
vector 1165  CAIN.eNodeB.sctp  "Slow Start Threshold 6:10.0.5.2"  ETV
vector 1166  CAIN.eNodeB.sctp  "Congestion Window 6:10.0.5.2"  ETV
vector 1167  CAIN.eNodeB.sctp  "Bandwidth 6:10.0.5.2"  ETV
vector 1163  CAIN.eNodeB.sctp  "RTO 6:10.0.5.2"  ETV
vector 916  CAIN.eNodeB.sctp  "HB ACK Sent 1:10.0.5.2"  ETV
vector 917  CAIN.eNodeB.sctp  "HB Received 1:10.0.5.2"  ETV
vector 965  CAIN.eNodeB1.sctp  "HB ACK Sent 2:10.0.5.1"  ETV
vector 966  CAIN.eNodeB1.sctp  "HB Received 2:10.0.5.1"  ETV
vector 1219  CAIN.eNodeB.sctp  "Slow Start Threshold 1:10.0.3.2"  ETV
vector 1220  CAIN.eNodeB.sctp  "Congestion Window 1:10.0.3.2"  ETV
vector 1221  CAIN.eNodeB.sctp  "Bandwidth 1:10.0.3.2"  ETV
vector 1224  CAIN.eNodeB.sctp  "HB Sent 1:10.0.3.2"  ETV
vector 1217  CAIN.eNodeB.sctp  "RTO 1:10.0.3.2"  ETV
vector 1192  CAIN.eNodeB.sctp  "Slow Start Threshold 1:10.0.4.2"  ETV
vector 1193  CAIN.eNodeB.sctp  "Congestion Window 1:10.0.4.2"  ETV
vector 1194  CAIN.eNodeB.sctp  "Bandwidth 1:10.0.4.2"  ETV
vector 1197  CAIN.eNodeB.sctp  "HB Sent 1:10.0.4.2"  ETV
vector 1190  CAIN.eNodeB.sctp  "RTO 1:10.0.4.2"  ETV
vector 910  CAIN.eNodeB.sctp  "Slow Start Threshold 1:10.0.5.2"  ETV
vector 911  CAIN.eNodeB.sctp  "Congestion Window 1:10.0.5.2"  ETV
vector 912  CAIN.eNodeB.sctp  "Bandwidth 1:10.0.5.2"  ETV
vector 908  CAIN.eNodeB.sctp  "RTO 1:10.0.5.2"  ETV
vector 1273  CAIN.eNodeB1.sctp  "Slow Start Threshold 2:10.0.2.2"  ETV
vector 1274  CAIN.eNodeB1.sctp  "Congestion Window 2:10.0.2.2"  ETV
vector 1275  CAIN.eNodeB1.sctp  "Bandwidth 2:10.0.2.2"  ETV
vector 1278  CAIN.eNodeB1.sctp  "HB Sent 2:10.0.2.2"  ETV
vector 1271  CAIN.eNodeB1.sctp  "RTO 2:10.0.2.2"  ETV
vector 1246  CAIN.eNodeB1.sctp  "Slow Start Threshold 2:10.0.4.1"  ETV
vector 1247  CAIN.eNodeB1.sctp  "Congestion Window 2:10.0.4.1"  ETV
vector 1248  CAIN.eNodeB1.sctp  "Bandwidth 2:10.0.4.1"  ETV
vector 1251  CAIN.eNodeB1.sctp  "HB Sent 2:10.0.4.1"  ETV
vector 1244  CAIN.eNodeB1.sctp  "RTO 2:10.0.4.1"  ETV
vector 959  CAIN.eNodeB1.sctp  "Slow Start Threshold 2:10.0.5.1"  ETV
vector 960  CAIN.eNodeB1.sctp  "Congestion Window 2:10.0.5.1"  ETV
vector 961  CAIN.eNodeB1.sctp  "Bandwidth 2:10.0.5.1"  ETV
vector 957  CAIN.eNodeB1.sctp  "RTO 2:10.0.5.1"  ETV
vector 1173  CAIN.eNodeB.sctp  "HB ACK Received 6:10.0.5.2"  ETV
vector 1164  CAIN.eNodeB.sctp  "RTT 6:10.0.5.2"  ETV
vector 1070  CAIN.eNodeB1.sctp  "HB ACK Received 5:10.0.5.1"  ETV
vector 1061  CAIN.eNodeB1.sctp  "RTT 5:10.0.5.1"  ETV
vector 1171  CAIN.eNodeB.sctp  "HB ACK Sent 6:10.0.5.2"  ETV
vector 1172  CAIN.eNodeB.sctp  "HB Received 6:10.0.5.2"  ETV
vector 1068  CAIN.eNodeB1.sctp  "HB ACK Sent 5:10.0.5.1"  ETV
vector 1069  CAIN.eNodeB1.sctp  "HB Received 5:10.0.5.1"  ETV
vector 967  CAIN.eNodeB1.sctp  "HB ACK Received 2:10.0.5.1"  ETV
vector 958  CAIN.eNodeB1.sctp  "RTT 2:10.0.5.1"  ETV
vector 918  CAIN.eNodeB.sctp  "HB ACK Received 1:10.0.5.2"  ETV
vector 909  CAIN.eNodeB.sctp  "RTT 1:10.0.5.2"  ETV
vector 96  CAIN.eNodeB.nic.mac  receivedPacketFromLowerLayer:vector(packetBytes)  ETV
attr interpolationmode  none
attr source  receivedPacketFromLowerLayer
vector 1305  CAIN.eNodeB.sctp  "SendQueue of Association 6"  ETV
vector 1168  CAIN.eNodeB.sctp  "TSN Sent 6:10.0.5.2"  ETV
vector 1175  CAIN.eNodeB.sctp  "Outstanding Bytes 6:10.0.5.2"  ETV
vector 848  CAIN.eNodeB.sctp  "Outstanding Bytes 3:Total"  ETV
vector 1174  CAIN.eNodeB.sctp  "Queued Sent Bytes 6:10.0.5.2"  ETV
vector 847  CAIN.eNodeB.sctp  "Queued Sent Bytes 3:Total"  ETV
vector 963  CAIN.eNodeB1.sctp  "TSN Received 2:10.0.5.1"  ETV
vector 939  CAIN.eNodeB1.sctp  "Queued Received Bytes 2:Total"  ETV
vector 935  CAIN.eNodeB1.sctp  "Advertised Receiver Window 2"  ETV
vector 944  CAIN.eNodeB1.sctp  "Number of Total Gap Blocks Stored 2"  ETV
vector 945  CAIN.eNodeB1.sctp  "Number of Revokable Gap Blocks Stored 2"  ETV
vector 946  CAIN.eNodeB1.sctp  "Number of Non-Revokable Gap Blocks Stored 2"  ETV
vector 947  CAIN.eNodeB1.sctp  "Number of Duplicate TSNs Stored 2"  ETV
vector 951  CAIN.eNodeB1.sctp  "Length of SACK Sent 2"  ETV
vector 948  CAIN.eNodeB1.sctp  "Number of Revokable Gap Blocks Sent 2"  ETV
vector 949  CAIN.eNodeB1.sctp  "Number of Non-Revokable Gap Blocks Sent 2"  ETV
vector 950  CAIN.eNodeB1.sctp  "Number of Duplicate TSNs Sent 2"  ETV
vector 955  CAIN.eNodeB1.sctp  "End to End Delay of Association 2"  ETV
vector 199  CAIN.eNodeB1.x2App[0].client  rcvdPk:vector(packetBytes)  ETV
attr interpolationmode  none
attr source  rcvdPk
attr title  "packets received, vector(packetBytes)"
vector 1304  CAIN.eNodeB.sctp  "Number of Gap Blocks in Last SACK of Association 6"  ETV
vector 849  CAIN.eNodeB.sctp  "Number of Revokable Gap Blocks in SACK 3"  ETV
vector 850  CAIN.eNodeB.sctp  "Number of Non-Revokable Gap Blocks in SACK 3"  ETV
vector 1185  CAIN.eNodeB.sctp  "TSN Acked CumAck 6:10.0.5.2"  ETV
vector 1151  CAIN.eNodeB.sctp  "Number of Gap Acked Chunks in Last SACK 6:10.0.3.2"  ETV
vector 1152  CAIN.eNodeB.sctp  "Number of Non-Revokable Gap Acked Chunks in Last SACK 6:10.0.3.2"  ETV
vector 1153  CAIN.eNodeB.sctp  "Number of Gap Missed Chunks in Last SACK 6:10.0.3.2"  ETV
vector 1124  CAIN.eNodeB.sctp  "Number of Gap Acked Chunks in Last SACK 6:10.0.4.2"  ETV
vector 1125  CAIN.eNodeB.sctp  "Number of Non-Revokable Gap Acked Chunks in Last SACK 6:10.0.4.2"  ETV
vector 1126  CAIN.eNodeB.sctp  "Number of Gap Missed Chunks in Last SACK 6:10.0.4.2"  ETV
vector 1178  CAIN.eNodeB.sctp  "Number of Gap Acked Chunks in Last SACK 6:10.0.5.2"  ETV
vector 1179  CAIN.eNodeB.sctp  "Number of Non-Revokable Gap Acked Chunks in Last SACK 6:10.0.5.2"  ETV
vector 1180  CAIN.eNodeB.sctp  "Number of Gap Missed Chunks in Last SACK 6:10.0.5.2"  ETV
vector 859  CAIN.eNodeB.sctp  "Arwnd in Last SACK 3"  ETV
vector 1187  CAIN.eNodeB.sctp  "TSN PseudoCumAck 6:10.0.5.2"  ETV
vector 1188  CAIN.eNodeB.sctp  "TSN RTXPseudoCumAck 6:10.0.5.2"  ETV
vector 1181  CAIN.eNodeB.sctp  "Partial Bytes Acked 6:10.0.5.2"  ETV
vector 1333  CAIN.ueD2DTx[13].tcp  tcpRcvQueueBytes  ETV
vector 1320  CAIN.ueD2DTx[13].tcp  "advertised window"  ETV
vector 1319  CAIN.ueD2DTx[13].tcp  "receive window"  ETV
vector 1322  CAIN.ueD2DTx[13].tcp  "sent ack"  ETV
vector 621  CAIN.ueD2DTx[13].nic.pdcpRrc  receivedPacketFromUpperLayer:vector(packetBytes)  ETV
attr interpolationmode  none
attr source  receivedPacketFromUpperLayer
vector 624  CAIN.ueD2DTx[13].nic.pdcpRrc  sentPacketToLowerLayer:vector(packetBytes)  ETV
attr interpolationmode  none
attr source  sentPacketToLowerLayer
vector 625  CAIN.ueD2DTx[13].nic.mac  receivedPacketFromUpperLayer:vector(packetBytes)  ETV
attr interpolationmode  none
attr source  receivedPacketFromUpperLayer
vector 635  CAIN.ueD2DTx[13].nic.mac  CainHopMessageSent:vector  ETV
attr interpolationmode  none
attr title  "# of Sent CAIN hop message, vector"
vector 628  CAIN.ueD2DTx[13].nic.mac  sentPacketToLowerLayer:vector(packetBytes)  ETV
attr interpolationmode  none
attr source  sentPacketToLowerLayer
vector 434  CAIN.ueD2DTx[7].nic.mac  receivedPacketFromLowerLayer:vector(packetBytes)  ETV
attr interpolationmode  none
attr source  receivedPacketFromLowerLayer
vector 436  CAIN.ueD2DTx[7].nic.mac  sentPacketToLowerLayer:vector(packetBytes)  ETV
attr interpolationmode  none
attr source  sentPacketToLowerLayer
vector 722  CAIN.ueD2DTx[16].nic.mac  receivedPacketFromLowerLayer:vector(packetBytes)  ETV
attr interpolationmode  none
attr source  receivedPacketFromLowerLayer
vector 724  CAIN.ueD2DTx[16].nic.mac  sentPacketToLowerLayer:vector(packetBytes)  ETV
attr interpolationmode  none
attr source  sentPacketToLowerLayer
vector 111  CAIN.eNodeB.nic.mac  racpkt:vector  ETV
attr interpolationmode  none
attr title  "eNB received racpkt message, vector"
vector 112  CAIN.eNodeB.nic.mac  racDistanceSignal:vector  ETV
attr interpolationmode  none
attr title  "Rac distance to enb, vector"
vector 113  CAIN.eNodeB.nic.mac  racServedDevsSignal:vector  ETV
attr interpolationmode  none
attr title  "# of devices served on rac arriavall, vector"
vector 106  CAIN.eNodeB.nic.mac  DistanceSignal:vector  ETV
attr interpolationmode  none
attr title  "Distance to enb, vector"
vector 101  CAIN.eNodeB.nic.mac  CainHopMessage:vector  ETV
attr interpolationmode  none
attr title  "eNB received CAIN hop message, vector"
vector 98  CAIN.eNodeB.nic.mac  sentPacketToLowerLayer:vector(packetBytes)  ETV
attr interpolationmode  none
attr source  sentPacketToLowerLayer
vector 729  CAIN.ueD2DTx[16].nic.mac  DropedHopMessage:vector  ETV
attr interpolationmode  none
attr title  "Droped Hop CAIN message due to RB not available, vector"
vector 1357  CAIN.ueD2DTx[18].tcp  tcpRcvQueueBytes  ETV
vector 1344  CAIN.ueD2DTx[18].tcp  "advertised window"  ETV
vector 1343  CAIN.ueD2DTx[18].tcp  "receive window"  ETV
vector 1346  CAIN.ueD2DTx[18].tcp  "sent ack"  ETV
vector 781  CAIN.ueD2DTx[18].nic.pdcpRrc  receivedPacketFromUpperLayer:vector(packetBytes)  ETV
attr interpolationmode  none
attr source  receivedPacketFromUpperLayer
vector 784  CAIN.ueD2DTx[18].nic.pdcpRrc  sentPacketToLowerLayer:vector(packetBytes)  ETV
attr interpolationmode  none
attr source  sentPacketToLowerLayer
vector 785  CAIN.ueD2DTx[18].nic.mac  receivedPacketFromUpperLayer:vector(packetBytes)  ETV
attr interpolationmode  none
attr source  receivedPacketFromUpperLayer
vector 795  CAIN.ueD2DTx[18].nic.mac  CainHopMessageSent:vector  ETV
attr interpolationmode  none
attr title  "# of Sent CAIN hop message, vector"
vector 788  CAIN.ueD2DTx[18].nic.mac  sentPacketToLowerLayer:vector(packetBytes)  ETV
attr interpolationmode  none
attr source  sentPacketToLowerLayer
vector 274  CAIN.ueD2DTx[2].nic.mac  receivedPacketFromLowerLayer:vector(packetBytes)  ETV
attr interpolationmode  none
attr source  receivedPacketFromLowerLayer
vector 276  CAIN.ueD2DTx[2].nic.mac  sentPacketToLowerLayer:vector(packetBytes)  ETV
attr interpolationmode  none
attr source  sentPacketToLowerLayer
vector 338  CAIN.ueD2DTx[4].nic.mac  receivedPacketFromLowerLayer:vector(packetBytes)  ETV
attr interpolationmode  none
attr source  receivedPacketFromLowerLayer
vector 340  CAIN.ueD2DTx[4].nic.mac  sentPacketToLowerLayer:vector(packetBytes)  ETV
attr interpolationmode  none
attr source  sentPacketToLowerLayer
vector 345  CAIN.ueD2DTx[4].nic.mac  DropedHopMessage:vector  ETV
attr interpolationmode  none
attr title  "Droped Hop CAIN message due to RB not available, vector"
vector 1381  CAIN.ueD2DTx[6].tcp  tcpRcvQueueBytes  ETV
vector 1368  CAIN.ueD2DTx[6].tcp  "advertised window"  ETV
vector 1367  CAIN.ueD2DTx[6].tcp  "receive window"  ETV
vector 1370  CAIN.ueD2DTx[6].tcp  "sent ack"  ETV
vector 397  CAIN.ueD2DTx[6].nic.pdcpRrc  receivedPacketFromUpperLayer:vector(packetBytes)  ETV
attr interpolationmode  none
attr source  receivedPacketFromUpperLayer
vector 400  CAIN.ueD2DTx[6].nic.pdcpRrc  sentPacketToLowerLayer:vector(packetBytes)  ETV
attr interpolationmode  none
attr source  sentPacketToLowerLayer
vector 401  CAIN.ueD2DTx[6].nic.mac  receivedPacketFromUpperLayer:vector(packetBytes)  ETV
attr interpolationmode  none
attr source  receivedPacketFromUpperLayer
vector 411  CAIN.ueD2DTx[6].nic.mac  CainHopMessageSent:vector  ETV
attr interpolationmode  none
attr title  "# of Sent CAIN hop message, vector"
vector 404  CAIN.ueD2DTx[6].nic.mac  sentPacketToLowerLayer:vector(packetBytes)  ETV
attr interpolationmode  none
attr source  sentPacketToLowerLayer
vector 1405  CAIN.ueD2DTx[14].tcp  tcpRcvQueueBytes  ETV
vector 1392  CAIN.ueD2DTx[14].tcp  "advertised window"  ETV
vector 1391  CAIN.ueD2DTx[14].tcp  "receive window"  ETV
vector 1394  CAIN.ueD2DTx[14].tcp  "sent ack"  ETV
vector 653  CAIN.ueD2DTx[14].nic.pdcpRrc  receivedPacketFromUpperLayer:vector(packetBytes)  ETV
attr interpolationmode  none
attr source  receivedPacketFromUpperLayer
vector 656  CAIN.ueD2DTx[14].nic.pdcpRrc  sentPacketToLowerLayer:vector(packetBytes)  ETV
attr interpolationmode  none
attr source  sentPacketToLowerLayer
vector 657  CAIN.ueD2DTx[14].nic.mac  receivedPacketFromUpperLayer:vector(packetBytes)  ETV
attr interpolationmode  none
attr source  receivedPacketFromUpperLayer
vector 667  CAIN.ueD2DTx[14].nic.mac  CainHopMessageSent:vector  ETV
attr interpolationmode  none
attr title  "# of Sent CAIN hop message, vector"
vector 660  CAIN.ueD2DTx[14].nic.mac  sentPacketToLowerLayer:vector(packetBytes)  ETV
attr interpolationmode  none
attr source  sentPacketToLowerLayer
vector 1429  CAIN.ueD2DTx[12].tcp  tcpRcvQueueBytes  ETV
vector 1416  CAIN.ueD2DTx[12].tcp  "advertised window"  ETV
vector 1415  CAIN.ueD2DTx[12].tcp  "receive window"  ETV
vector 1418  CAIN.ueD2DTx[12].tcp  "sent ack"  ETV
vector 589  CAIN.ueD2DTx[12].nic.pdcpRrc  receivedPacketFromUpperLayer:vector(packetBytes)  ETV
attr interpolationmode  none
attr source  receivedPacketFromUpperLayer
vector 592  CAIN.ueD2DTx[12].nic.pdcpRrc  sentPacketToLowerLayer:vector(packetBytes)  ETV
attr interpolationmode  none
attr source  sentPacketToLowerLayer
vector 593  CAIN.ueD2DTx[12].nic.mac  receivedPacketFromUpperLayer:vector(packetBytes)  ETV
attr interpolationmode  none
attr source  receivedPacketFromUpperLayer
vector 603  CAIN.ueD2DTx[12].nic.mac  CainHopMessageSent:vector  ETV
attr interpolationmode  none
attr title  "# of Sent CAIN hop message, vector"
vector 596  CAIN.ueD2DTx[12].nic.mac  sentPacketToLowerLayer:vector(packetBytes)  ETV
attr interpolationmode  none
attr source  sentPacketToLowerLayer
vector 498  CAIN.ueD2DTx[9].nic.mac  receivedPacketFromLowerLayer:vector(packetBytes)  ETV
attr interpolationmode  none
attr source  receivedPacketFromLowerLayer
vector 500  CAIN.ueD2DTx[9].nic.mac  sentPacketToLowerLayer:vector(packetBytes)  ETV
attr interpolationmode  none
attr source  sentPacketToLowerLayer
vector 505  CAIN.ueD2DTx[9].nic.mac  DropedHopMessage:vector  ETV
attr interpolationmode  none
attr title  "Droped Hop CAIN message due to RB not available, vector"
vector 1453  CAIN.ueD2DTx[2].tcp  tcpRcvQueueBytes  ETV
vector 1440  CAIN.ueD2DTx[2].tcp  "advertised window"  ETV
vector 1439  CAIN.ueD2DTx[2].tcp  "receive window"  ETV
vector 1442  CAIN.ueD2DTx[2].tcp  "sent ack"  ETV
vector 269  CAIN.ueD2DTx[2].nic.pdcpRrc  receivedPacketFromUpperLayer:vector(packetBytes)  ETV
attr interpolationmode  none
attr source  receivedPacketFromUpperLayer
vector 272  CAIN.ueD2DTx[2].nic.pdcpRrc  sentPacketToLowerLayer:vector(packetBytes)  ETV
attr interpolationmode  none
attr source  sentPacketToLowerLayer
vector 273  CAIN.ueD2DTx[2].nic.mac  receivedPacketFromUpperLayer:vector(packetBytes)  ETV
attr interpolationmode  none
attr source  receivedPacketFromUpperLayer
vector 283  CAIN.ueD2DTx[2].nic.mac  CainHopMessageSent:vector  ETV
attr interpolationmode  none
attr title  "# of Sent CAIN hop message, vector"
vector 242  CAIN.ueD2DTx[1].nic.mac  receivedPacketFromLowerLayer:vector(packetBytes)  ETV
attr interpolationmode  none
attr source  receivedPacketFromLowerLayer
vector 244  CAIN.ueD2DTx[1].nic.mac  sentPacketToLowerLayer:vector(packetBytes)  ETV
attr interpolationmode  none
attr source  sentPacketToLowerLayer
vector 1477  CAIN.ueD2DTx[15].tcp  tcpRcvQueueBytes  ETV
vector 1464  CAIN.ueD2DTx[15].tcp  "advertised window"  ETV
vector 1463  CAIN.ueD2DTx[15].tcp  "receive window"  ETV
vector 1466  CAIN.ueD2DTx[15].tcp  "sent ack"  ETV
vector 685  CAIN.ueD2DTx[15].nic.pdcpRrc  receivedPacketFromUpperLayer:vector(packetBytes)  ETV
attr interpolationmode  none
attr source  receivedPacketFromUpperLayer
vector 688  CAIN.ueD2DTx[15].nic.pdcpRrc  sentPacketToLowerLayer:vector(packetBytes)  ETV
attr interpolationmode  none
attr source  sentPacketToLowerLayer
vector 689  CAIN.ueD2DTx[15].nic.mac  receivedPacketFromUpperLayer:vector(packetBytes)  ETV
attr interpolationmode  none
attr source  receivedPacketFromUpperLayer
vector 692  CAIN.ueD2DTx[15].nic.mac  sentPacketToLowerLayer:vector(packetBytes)  ETV
attr interpolationmode  none
attr source  sentPacketToLowerLayer
vector 1501  CAIN.ueD2DTx[3].tcp  tcpRcvQueueBytes  ETV
vector 1488  CAIN.ueD2DTx[3].tcp  "advertised window"  ETV
vector 1487  CAIN.ueD2DTx[3].tcp  "receive window"  ETV
vector 1490  CAIN.ueD2DTx[3].tcp  "sent ack"  ETV
vector 301  CAIN.ueD2DTx[3].nic.pdcpRrc  receivedPacketFromUpperLayer:vector(packetBytes)  ETV
attr interpolationmode  none
attr source  receivedPacketFromUpperLayer
vector 304  CAIN.ueD2DTx[3].nic.pdcpRrc  sentPacketToLowerLayer:vector(packetBytes)  ETV
attr interpolationmode  none
attr source  sentPacketToLowerLayer
vector 305  CAIN.ueD2DTx[3].nic.mac  receivedPacketFromUpperLayer:vector(packetBytes)  ETV
attr interpolationmode  none
attr source  receivedPacketFromUpperLayer
vector 315  CAIN.ueD2DTx[3].nic.mac  CainHopMessageSent:vector  ETV
attr interpolationmode  none
attr title  "# of Sent CAIN hop message, vector"
vector 308  CAIN.ueD2DTx[3].nic.mac  sentPacketToLowerLayer:vector(packetBytes)  ETV
attr interpolationmode  none
attr source  sentPacketToLowerLayer
vector 690  CAIN.ueD2DTx[15].nic.mac  receivedPacketFromLowerLayer:vector(packetBytes)  ETV
attr interpolationmode  none
attr source  receivedPacketFromLowerLayer
vector 691  CAIN.ueD2DTx[15].nic.mac  sentPacketToUpperLayer:vector(packetBytes)  ETV
attr interpolationmode  none
attr source  sentPacketToUpperLayer
vector 115  CAIN.eNodeB.nic.phy  averageCqiUlvect:vector  ETV
attr source  averageCqiUlvect
attr title  "Average Cqi reported in UL, vector"
attr unit  cqi
vector 1525  CAIN.ueD2DTx[8].tcp  tcpRcvQueueBytes  ETV
vector 1512  CAIN.ueD2DTx[8].tcp  "advertised window"  ETV
vector 1511  CAIN.ueD2DTx[8].tcp  "receive window"  ETV
vector 1514  CAIN.ueD2DTx[8].tcp  "sent ack"  ETV
vector 461  CAIN.ueD2DTx[8].nic.pdcpRrc  receivedPacketFromUpperLayer:vector(packetBytes)  ETV
attr interpolationmode  none
attr source  receivedPacketFromUpperLayer
vector 464  CAIN.ueD2DTx[8].nic.pdcpRrc  sentPacketToLowerLayer:vector(packetBytes)  ETV
attr interpolationmode  none
attr source  sentPacketToLowerLayer
vector 465  CAIN.ueD2DTx[8].nic.mac  receivedPacketFromUpperLayer:vector(packetBytes)  ETV
attr interpolationmode  none
attr source  receivedPacketFromUpperLayer
vector 475  CAIN.ueD2DTx[8].nic.mac  CainHopMessageSent:vector  ETV
attr interpolationmode  none
attr title  "# of Sent CAIN hop message, vector"
vector 468  CAIN.ueD2DTx[8].nic.mac  sentPacketToLowerLayer:vector(packetBytes)  ETV
attr interpolationmode  none
attr source  sentPacketToLowerLayer
vector 97  CAIN.eNodeB.nic.mac  sentPacketToUpperLayer:vector(packetBytes)  ETV
attr interpolationmode  none
attr source  sentPacketToUpperLayer
vector 99  CAIN.eNodeB.nic.mac  measuredItbs:vector  ETV
attr source  measuredItbs
attr title  "TBS index, vector"
attr unit  ""
vector 818  CAIN.ueD2DTx[19].nic.mac  receivedPacketFromLowerLayer:vector(packetBytes)  ETV
attr interpolationmode  none
attr source  receivedPacketFromLowerLayer
vector 820  CAIN.ueD2DTx[19].nic.mac  sentPacketToLowerLayer:vector(packetBytes)  ETV
attr interpolationmode  none
attr source  sentPacketToLowerLayer
vector 825  CAIN.ueD2DTx[19].nic.mac  DropedHopMessage:vector  ETV
attr interpolationmode  none
attr title  "Droped Hop CAIN message due to RB not available, vector"
vector 92  CAIN.eNodeB.nic.pdcpRrc  receivedPacketFromLowerLayer:vector(packetBytes)  ETV
attr interpolationmode  none
attr source  receivedPacketFromLowerLayer
vector 93  CAIN.eNodeB.nic.pdcpRrc  sentPacketToUpperLayer:vector(packetBytes)  ETV
attr interpolationmode  none
attr source  sentPacketToUpperLayer
vector 86  CAIN.eNodeB.udp  sentPk:vector(packetBytes)  ETV
attr interpolationmode  none
attr source  sentPk
attr title  "packets sent, vector(packetBytes)"
vector 145  CAIN.eNodeB1.udp  rcvdPk:vector(packetBytes)  ETV
attr interpolationmode  none
attr source  rcvdPk
attr title  "packets received, vector(packetBytes)"
vector 146  CAIN.eNodeB1.udp  passedUpPk:vector(count)  ETV
attr interpolationmode  none
attr title  "packets passed up, vector(count)"
vector 1549  CAIN.ueD2DTx[11].tcp  tcpRcvQueueBytes  ETV
vector 1536  CAIN.ueD2DTx[11].tcp  "advertised window"  ETV
vector 1535  CAIN.ueD2DTx[11].tcp  "receive window"  ETV
vector 1538  CAIN.ueD2DTx[11].tcp  "sent ack"  ETV
vector 557  CAIN.ueD2DTx[11].nic.pdcpRrc  receivedPacketFromUpperLayer:vector(packetBytes)  ETV
attr interpolationmode  none
attr source  receivedPacketFromUpperLayer
vector 560  CAIN.ueD2DTx[11].nic.pdcpRrc  sentPacketToLowerLayer:vector(packetBytes)  ETV
attr interpolationmode  none
attr source  sentPacketToLowerLayer
vector 561  CAIN.ueD2DTx[11].nic.mac  receivedPacketFromUpperLayer:vector(packetBytes)  ETV
attr interpolationmode  none
attr source  receivedPacketFromUpperLayer
vector 564  CAIN.ueD2DTx[11].nic.mac  sentPacketToLowerLayer:vector(packetBytes)  ETV
attr interpolationmode  none
attr source  sentPacketToLowerLayer
vector 562  CAIN.ueD2DTx[11].nic.mac  receivedPacketFromLowerLayer:vector(packetBytes)  ETV
attr interpolationmode  none
attr source  receivedPacketFromLowerLayer
vector 563  CAIN.ueD2DTx[11].nic.mac  sentPacketToUpperLayer:vector(packetBytes)  ETV
attr interpolationmode  none
attr source  sentPacketToUpperLayer
vector 1573  CAIN.ueD2DTx[7].tcp  tcpRcvQueueBytes  ETV
vector 1560  CAIN.ueD2DTx[7].tcp  "advertised window"  ETV
vector 1559  CAIN.ueD2DTx[7].tcp  "receive window"  ETV
vector 1562  CAIN.ueD2DTx[7].tcp  "sent ack"  ETV
vector 429  CAIN.ueD2DTx[7].nic.pdcpRrc  receivedPacketFromUpperLayer:vector(packetBytes)  ETV
attr interpolationmode  none
attr source  receivedPacketFromUpperLayer
vector 432  CAIN.ueD2DTx[7].nic.pdcpRrc  sentPacketToLowerLayer:vector(packetBytes)  ETV
attr interpolationmode  none
attr source  sentPacketToLowerLayer
vector 433  CAIN.ueD2DTx[7].nic.mac  receivedPacketFromUpperLayer:vector(packetBytes)  ETV
attr interpolationmode  none
attr source  receivedPacketFromUpperLayer
vector 442  CAIN.ueD2DTx[7].nic.mac  CainMessageSent:vector  ETV
attr interpolationmode  none
attr title  "# of Sent CAIN message, vector"
vector 149  CAIN.eNodeB1.nic.pdcpRrc  receivedPacketFromUpperLayer:vector(packetBytes)  ETV
attr interpolationmode  none
attr source  receivedPacketFromUpperLayer
vector 152  CAIN.eNodeB1.nic.pdcpRrc  sentPacketToLowerLayer:vector(packetBytes)  ETV
attr interpolationmode  none
attr source  sentPacketToLowerLayer
vector 1301  CAIN.eNodeB1.sctp  "SendQueue of Association 5"  ETV
vector 1065  CAIN.eNodeB1.sctp  "TSN Sent 5:10.0.5.1"  ETV
vector 1072  CAIN.eNodeB1.sctp  "Outstanding Bytes 5:10.0.5.1"  ETV
vector 870  CAIN.eNodeB1.sctp  "Outstanding Bytes 4:Total"  ETV
vector 1071  CAIN.eNodeB1.sctp  "Queued Sent Bytes 5:10.0.5.1"  ETV
vector 869  CAIN.eNodeB1.sctp  "Queued Sent Bytes 4:Total"  ETV
vector 153  CAIN.eNodeB1.nic.mac  receivedPacketFromUpperLayer:vector(packetBytes)  ETV
attr interpolationmode  none
attr source  receivedPacketFromUpperLayer
vector 914  CAIN.eNodeB.sctp  "TSN Received 1:10.0.5.2"  ETV
vector 890  CAIN.eNodeB.sctp  "Queued Received Bytes 1:Total"  ETV
vector 886  CAIN.eNodeB.sctp  "Advertised Receiver Window 1"  ETV
vector 895  CAIN.eNodeB.sctp  "Number of Total Gap Blocks Stored 1"  ETV
vector 896  CAIN.eNodeB.sctp  "Number of Revokable Gap Blocks Stored 1"  ETV
vector 897  CAIN.eNodeB.sctp  "Number of Non-Revokable Gap Blocks Stored 1"  ETV
vector 898  CAIN.eNodeB.sctp  "Number of Duplicate TSNs Stored 1"  ETV
vector 902  CAIN.eNodeB.sctp  "Length of SACK Sent 1"  ETV
vector 899  CAIN.eNodeB.sctp  "Number of Revokable Gap Blocks Sent 1"  ETV
vector 900  CAIN.eNodeB.sctp  "Number of Non-Revokable Gap Blocks Sent 1"  ETV
vector 901  CAIN.eNodeB.sctp  "Number of Duplicate TSNs Sent 1"  ETV
vector 906  CAIN.eNodeB.sctp  "End to End Delay of Association 1"  ETV
vector 141  CAIN.eNodeB.x2App[0].client  rcvdPk:vector(packetBytes)  ETV
attr interpolationmode  none
attr source  rcvdPk
attr title  "packets received, vector(packetBytes)"
vector 1300  CAIN.eNodeB1.sctp  "Number of Gap Blocks in Last SACK of Association 5"  ETV
vector 871  CAIN.eNodeB1.sctp  "Number of Revokable Gap Blocks in SACK 4"  ETV
vector 872  CAIN.eNodeB1.sctp  "Number of Non-Revokable Gap Blocks in SACK 4"  ETV
vector 1082  CAIN.eNodeB1.sctp  "TSN Acked CumAck 5:10.0.5.1"  ETV
vector 1048  CAIN.eNodeB1.sctp  "Number of Gap Acked Chunks in Last SACK 5:10.0.2.2"  ETV
vector 1049  CAIN.eNodeB1.sctp  "Number of Non-Revokable Gap Acked Chunks in Last SACK 5:10.0.2.2"  ETV
vector 1050  CAIN.eNodeB1.sctp  "Number of Gap Missed Chunks in Last SACK 5:10.0.2.2"  ETV
vector 1021  CAIN.eNodeB1.sctp  "Number of Gap Acked Chunks in Last SACK 5:10.0.4.1"  ETV
vector 1022  CAIN.eNodeB1.sctp  "Number of Non-Revokable Gap Acked Chunks in Last SACK 5:10.0.4.1"  ETV
vector 1023  CAIN.eNodeB1.sctp  "Number of Gap Missed Chunks in Last SACK 5:10.0.4.1"  ETV
vector 1075  CAIN.eNodeB1.sctp  "Number of Gap Acked Chunks in Last SACK 5:10.0.5.1"  ETV
vector 1076  CAIN.eNodeB1.sctp  "Number of Non-Revokable Gap Acked Chunks in Last SACK 5:10.0.5.1"  ETV
vector 1077  CAIN.eNodeB1.sctp  "Number of Gap Missed Chunks in Last SACK 5:10.0.5.1"  ETV
vector 881  CAIN.eNodeB1.sctp  "Arwnd in Last SACK 4"  ETV
vector 1084  CAIN.eNodeB1.sctp  "TSN PseudoCumAck 5:10.0.5.1"  ETV
vector 1085  CAIN.eNodeB1.sctp  "TSN RTXPseudoCumAck 5:10.0.5.1"  ETV
vector 1078  CAIN.eNodeB1.sctp  "Partial Bytes Acked 5:10.0.5.1"  ETV
vector 1597  CAIN.ueD2DTx[4].tcp  tcpRcvQueueBytes  ETV
vector 1584  CAIN.ueD2DTx[4].tcp  "advertised window"  ETV
vector 1583  CAIN.ueD2DTx[4].tcp  "receive window"  ETV
vector 1586  CAIN.ueD2DTx[4].tcp  "sent ack"  ETV
vector 333  CAIN.ueD2DTx[4].nic.pdcpRrc  receivedPacketFromUpperLayer:vector(packetBytes)  ETV
attr interpolationmode  none
attr source  receivedPacketFromUpperLayer
vector 336  CAIN.ueD2DTx[4].nic.pdcpRrc  sentPacketToLowerLayer:vector(packetBytes)  ETV
attr interpolationmode  none
attr source  sentPacketToLowerLayer
vector 337  CAIN.ueD2DTx[4].nic.mac  receivedPacketFromUpperLayer:vector(packetBytes)  ETV
attr interpolationmode  none
attr source  receivedPacketFromUpperLayer
vector 100  CAIN.eNodeB.nic.mac  CainMessage:vector  ETV
attr interpolationmode  none
attr title  "eNB received CAIN message, vector"
vector 154  CAIN.eNodeB1.nic.mac  receivedPacketFromLowerLayer:vector(packetBytes)  ETV
attr interpolationmode  none
attr source  receivedPacketFromLowerLayer
vector 169  CAIN.eNodeB1.nic.mac  racpkt:vector  ETV
attr interpolationmode  none
attr title  "eNB received racpkt message, vector"
vector 170  CAIN.eNodeB1.nic.mac  racDistanceSignal:vector  ETV
attr interpolationmode  none
attr title  "Rac distance to enb, vector"
vector 171  CAIN.eNodeB1.nic.mac  racServedDevsSignal:vector  ETV
attr interpolationmode  none
attr title  "# of devices served on rac arriavall, vector"
vector 156  CAIN.eNodeB1.nic.mac  sentPacketToLowerLayer:vector(packetBytes)  ETV
attr interpolationmode  none
attr source  sentPacketToLowerLayer
vector 728  CAIN.ueD2DTx[16].nic.mac  DropedCainMessage:vector  ETV
attr interpolationmode  none
attr title  "Droped CAIN message due to RB not available, vector"
vector 117  CAIN.eNodeB.pppIf.queue  rcvdPk:vector(packetBytes)  ETV
attr interpolationmode  none
attr title  "received packets, vector(packetBytes)"
vector 119  CAIN.eNodeB.pppIf.queue  queueingTime:vector  ETV
attr interpolationmode  none
attr title  "queueing time, vector"
vector 126  CAIN.eNodeB.pppIf.ppp  rcvdPkFromHL:vector(packetBytes)  ETV
attr interpolationmode  none
attr source  packetReceivedFromUpper
attr title  "packets received from higher layer, vector(packetBytes)"
vector 122  CAIN.eNodeB.pppIf.ppp  txPk:vector(packetBytes)  ETV
attr interpolationmode  none
attr source  packetSentToLower
attr title  "packets transmitted, vector(packetBytes)"
vector 59  CAIN.pgw.ppp[0].ppp  rxPkOk:vector(packetBytes)  ETV
attr interpolationmode  none
attr source  rxPkOk
attr title  "packets received OK, vector(packetBytes)"
vector 63  CAIN.pgw.ppp[0].ppp  passedUpPk:vector(packetBytes)  ETV
attr interpolationmode  none
attr source  packetSentToUpper
attr title  "packets passed to higher layer, vector(packetBytes)"
vector 44  CAIN.pgw.udp  rcvdPk:vector(packetBytes)  ETV
attr interpolationmode  none
attr source  rcvdPk
attr title  "packets received, vector(packetBytes)"
vector 45  CAIN.pgw.udp  passedUpPk:vector(count)  ETV
attr interpolationmode  none
attr title  "packets passed up, vector(count)"
vector 43  CAIN.pgw.udp  sentPk:vector(packetBytes)  ETV
attr interpolationmode  none
attr source  sentPk
attr title  "packets sent, vector(packetBytes)"
vector 64  CAIN.pgw.ppp[1].queue  rcvdPk:vector(packetBytes)  ETV
attr interpolationmode  none
attr title  "received packets, vector(packetBytes)"
vector 66  CAIN.pgw.ppp[1].queue  queueingTime:vector  ETV
attr interpolationmode  none
attr title  "queueing time, vector"
vector 73  CAIN.pgw.ppp[1].ppp  rcvdPkFromHL:vector(packetBytes)  ETV
attr interpolationmode  none
attr source  packetReceivedFromUpper
attr title  "packets received from higher layer, vector(packetBytes)"
vector 69  CAIN.pgw.ppp[1].ppp  txPk:vector(packetBytes)  ETV
attr interpolationmode  none
attr source  packetSentToLower
attr title  "packets transmitted, vector(packetBytes)"
vector 181  CAIN.eNodeB1.pppIf.ppp  rxPkOk:vector(packetBytes)  ETV
attr interpolationmode  none
attr source  rxPkOk
attr title  "packets received OK, vector(packetBytes)"
vector 185  CAIN.eNodeB1.pppIf.ppp  passedUpPk:vector(packetBytes)  ETV
attr interpolationmode  none
attr source  packetSentToUpper
attr title  "packets passed to higher layer, vector(packetBytes)"
vector 1621  CAIN.ueD2DTx[16].tcp  tcpRcvQueueBytes  ETV
vector 1608  CAIN.ueD2DTx[16].tcp  "advertised window"  ETV
vector 1607  CAIN.ueD2DTx[16].tcp  "receive window"  ETV
vector 1610  CAIN.ueD2DTx[16].tcp  "sent ack"  ETV
vector 717  CAIN.ueD2DTx[16].nic.pdcpRrc  receivedPacketFromUpperLayer:vector(packetBytes)  ETV
attr interpolationmode  none
attr source  receivedPacketFromUpperLayer
vector 720  CAIN.ueD2DTx[16].nic.pdcpRrc  sentPacketToLowerLayer:vector(packetBytes)  ETV
attr interpolationmode  none
attr source  sentPacketToLowerLayer
vector 721  CAIN.ueD2DTx[16].nic.mac  receivedPacketFromUpperLayer:vector(packetBytes)  ETV
attr interpolationmode  none
attr source  receivedPacketFromUpperLayer
vector 1645  CAIN.ueD2DTx[1].tcp  tcpRcvQueueBytes  ETV
vector 1632  CAIN.ueD2DTx[1].tcp  "advertised window"  ETV
vector 1631  CAIN.ueD2DTx[1].tcp  "receive window"  ETV
vector 1634  CAIN.ueD2DTx[1].tcp  "sent ack"  ETV
vector 237  CAIN.ueD2DTx[1].nic.pdcpRrc  receivedPacketFromUpperLayer:vector(packetBytes)  ETV
attr interpolationmode  none
attr source  receivedPacketFromUpperLayer
vector 240  CAIN.ueD2DTx[1].nic.pdcpRrc  sentPacketToLowerLayer:vector(packetBytes)  ETV
attr interpolationmode  none
attr source  sentPacketToLowerLayer
vector 241  CAIN.ueD2DTx[1].nic.mac  receivedPacketFromUpperLayer:vector(packetBytes)  ETV
attr interpolationmode  none
attr source  receivedPacketFromUpperLayer
vector 723  CAIN.ueD2DTx[16].nic.mac  sentPacketToUpperLayer:vector(packetBytes)  ETV
attr interpolationmode  none
attr source  sentPacketToUpperLayer
vector 108  CAIN.eNodeB.nic.mac  ServedDevs:vector  ETV
attr interpolationmode  none
attr title  "# of devices served on cain forwarding, vector"
vector 109  CAIN.eNodeB.nic.mac  ServedHopDevs:vector  ETV
attr interpolationmode  none
attr title  "# of devices served on hop forwarding, vector"
vector 1669  CAIN.ueD2DTx[9].tcp  tcpRcvQueueBytes  ETV
vector 1656  CAIN.ueD2DTx[9].tcp  "advertised window"  ETV
vector 1655  CAIN.ueD2DTx[9].tcp  "receive window"  ETV
vector 1658  CAIN.ueD2DTx[9].tcp  "sent ack"  ETV
vector 493  CAIN.ueD2DTx[9].nic.pdcpRrc  receivedPacketFromUpperLayer:vector(packetBytes)  ETV
attr interpolationmode  none
attr source  receivedPacketFromUpperLayer
vector 496  CAIN.ueD2DTx[9].nic.pdcpRrc  sentPacketToLowerLayer:vector(packetBytes)  ETV
attr interpolationmode  none
attr source  sentPacketToLowerLayer
vector 497  CAIN.ueD2DTx[9].nic.mac  receivedPacketFromUpperLayer:vector(packetBytes)  ETV
attr interpolationmode  none
attr source  receivedPacketFromUpperLayer
vector 1693  CAIN.ueD2DTx[10].tcp  tcpRcvQueueBytes  ETV
vector 1680  CAIN.ueD2DTx[10].tcp  "advertised window"  ETV
vector 1679  CAIN.ueD2DTx[10].tcp  "receive window"  ETV
vector 1682  CAIN.ueD2DTx[10].tcp  "sent ack"  ETV
vector 525  CAIN.ueD2DTx[10].nic.pdcpRrc  receivedPacketFromUpperLayer:vector(packetBytes)  ETV
attr interpolationmode  none
attr source  receivedPacketFromUpperLayer
vector 528  CAIN.ueD2DTx[10].nic.pdcpRrc  sentPacketToLowerLayer:vector(packetBytes)  ETV
attr interpolationmode  none
attr source  sentPacketToLowerLayer
vector 529  CAIN.ueD2DTx[10].nic.mac  receivedPacketFromUpperLayer:vector(packetBytes)  ETV
attr interpolationmode  none
attr source  receivedPacketFromUpperLayer
vector 538  CAIN.ueD2DTx[10].nic.mac  CainMessageSent:vector  ETV
attr interpolationmode  none
attr title  "# of Sent CAIN message, vector"
vector 532  CAIN.ueD2DTx[10].nic.mac  sentPacketToLowerLayer:vector(packetBytes)  ETV
attr interpolationmode  none
attr source  sentPacketToLowerLayer
vector 499  CAIN.ueD2DTx[9].nic.mac  sentPacketToUpperLayer:vector(packetBytes)  ETV
attr interpolationmode  none
attr source  sentPacketToUpperLayer
vector 1717  CAIN.ueD2DTx[17].tcp  tcpRcvQueueBytes  ETV
vector 1704  CAIN.ueD2DTx[17].tcp  "advertised window"  ETV
vector 1703  CAIN.ueD2DTx[17].tcp  "receive window"  ETV
vector 1706  CAIN.ueD2DTx[17].tcp  "sent ack"  ETV
vector 749  CAIN.ueD2DTx[17].nic.pdcpRrc  receivedPacketFromUpperLayer:vector(packetBytes)  ETV
attr interpolationmode  none
attr source  receivedPacketFromUpperLayer
vector 752  CAIN.ueD2DTx[17].nic.pdcpRrc  sentPacketToLowerLayer:vector(packetBytes)  ETV
attr interpolationmode  none
attr source  sentPacketToLowerLayer
vector 753  CAIN.ueD2DTx[17].nic.mac  receivedPacketFromUpperLayer:vector(packetBytes)  ETV
attr interpolationmode  none
attr source  receivedPacketFromUpperLayer
vector 1741  CAIN.ueD2DTx[0].tcp  tcpRcvQueueBytes  ETV
vector 1728  CAIN.ueD2DTx[0].tcp  "advertised window"  ETV
vector 1727  CAIN.ueD2DTx[0].tcp  "receive window"  ETV
vector 1730  CAIN.ueD2DTx[0].tcp  "sent ack"  ETV
vector 205  CAIN.ueD2DTx[0].nic.pdcpRrc  receivedPacketFromUpperLayer:vector(packetBytes)  ETV
attr interpolationmode  none
attr source  receivedPacketFromUpperLayer
vector 208  CAIN.ueD2DTx[0].nic.pdcpRrc  sentPacketToLowerLayer:vector(packetBytes)  ETV
attr interpolationmode  none
attr source  sentPacketToLowerLayer
vector 209  CAIN.ueD2DTx[0].nic.mac  receivedPacketFromUpperLayer:vector(packetBytes)  ETV
attr interpolationmode  none
attr source  receivedPacketFromUpperLayer
vector 218  CAIN.ueD2DTx[0].nic.mac  CainMessageSent:vector  ETV
attr interpolationmode  none
attr title  "# of Sent CAIN message, vector"
vector 212  CAIN.ueD2DTx[0].nic.mac  sentPacketToLowerLayer:vector(packetBytes)  ETV
attr interpolationmode  none
attr source  sentPacketToLowerLayer
vector 756  CAIN.ueD2DTx[17].nic.mac  sentPacketToLowerLayer:vector(packetBytes)  ETV
attr interpolationmode  none
attr source  sentPacketToLowerLayer
vector 754  CAIN.ueD2DTx[17].nic.mac  receivedPacketFromLowerLayer:vector(packetBytes)  ETV
attr interpolationmode  none
attr source  receivedPacketFromLowerLayer
vector 1765  CAIN.ueD2DTx[19].tcp  tcpRcvQueueBytes  ETV
vector 1752  CAIN.ueD2DTx[19].tcp  "advertised window"  ETV
vector 1751  CAIN.ueD2DTx[19].tcp  "receive window"  ETV
vector 1754  CAIN.ueD2DTx[19].tcp  "sent ack"  ETV
vector 813  CAIN.ueD2DTx[19].nic.pdcpRrc  receivedPacketFromUpperLayer:vector(packetBytes)  ETV
attr interpolationmode  none
attr source  receivedPacketFromUpperLayer
vector 816  CAIN.ueD2DTx[19].nic.pdcpRrc  sentPacketToLowerLayer:vector(packetBytes)  ETV
attr interpolationmode  none
attr source  sentPacketToLowerLayer
vector 817  CAIN.ueD2DTx[19].nic.mac  receivedPacketFromUpperLayer:vector(packetBytes)  ETV
attr interpolationmode  none
attr source  receivedPacketFromUpperLayer
vector 1789  CAIN.ueD2DTx[5].tcp  tcpRcvQueueBytes  ETV
vector 1776  CAIN.ueD2DTx[5].tcp  "advertised window"  ETV
vector 1775  CAIN.ueD2DTx[5].tcp  "receive window"  ETV
vector 1778  CAIN.ueD2DTx[5].tcp  "sent ack"  ETV
vector 365  CAIN.ueD2DTx[5].nic.pdcpRrc  receivedPacketFromUpperLayer:vector(packetBytes)  ETV
attr interpolationmode  none
attr source  receivedPacketFromUpperLayer
vector 368  CAIN.ueD2DTx[5].nic.pdcpRrc  sentPacketToLowerLayer:vector(packetBytes)  ETV
attr interpolationmode  none
attr source  sentPacketToLowerLayer
vector 369  CAIN.ueD2DTx[5].nic.mac  receivedPacketFromUpperLayer:vector(packetBytes)  ETV
attr interpolationmode  none
attr source  receivedPacketFromUpperLayer
vector 379  CAIN.ueD2DTx[5].nic.mac  CainHopMessageSent:vector  ETV
attr interpolationmode  none
attr title  "# of Sent CAIN hop message, vector"
vector 372  CAIN.ueD2DTx[5].nic.mac  sentPacketToLowerLayer:vector(packetBytes)  ETV
attr interpolationmode  none
attr source  sentPacketToLowerLayer
vector 819  CAIN.ueD2DTx[19].nic.mac  sentPacketToUpperLayer:vector(packetBytes)  ETV
attr interpolationmode  none
attr source  sentPacketToUpperLayer
vector 157  CAIN.eNodeB1.nic.mac  measuredItbs:vector  ETV
attr source  measuredItbs
attr title  "TBS index, vector"
attr unit  ""
vector 155  CAIN.eNodeB1.nic.mac  sentPacketToUpperLayer:vector(packetBytes)  ETV
attr interpolationmode  none
attr source  sentPacketToUpperLayer
vector 228  CAIN.ueD2DTx[0].nic.phy  averageCqiDlvect:vector  ETV
attr source  averageCqiDlvect
attr title  "Average Cqi reported in DL, vector"
attr unit  cqi
vector 210  CAIN.ueD2DTx[0].nic.mac  receivedPacketFromLowerLayer:vector(packetBytes)  ETV
attr interpolationmode  none
attr source  receivedPacketFromLowerLayer
vector 211  CAIN.ueD2DTx[0].nic.mac  sentPacketToUpperLayer:vector(packetBytes)  ETV
attr interpolationmode  none
attr source  sentPacketToUpperLayer
vector 206  CAIN.ueD2DTx[0].nic.pdcpRrc  receivedPacketFromLowerLayer:vector(packetBytes)  ETV
attr interpolationmode  none
attr source  receivedPacketFromLowerLayer
vector 207  CAIN.ueD2DTx[0].nic.pdcpRrc  sentPacketToUpperLayer:vector(packetBytes)  ETV
attr interpolationmode  none
attr source  sentPacketToUpperLayer
vector 786  CAIN.ueD2DTx[18].nic.mac  receivedPacketFromLowerLayer:vector(packetBytes)  ETV
attr interpolationmode  none
attr source  receivedPacketFromLowerLayer
vector 787  CAIN.ueD2DTx[18].nic.mac  sentPacketToUpperLayer:vector(packetBytes)  ETV
attr interpolationmode  none
attr source  sentPacketToUpperLayer
vector 173  CAIN.eNodeB1.nic.phy  averageCqiUlvect:vector  ETV
attr source  averageCqiUlvect
attr title  "Average Cqi reported in UL, vector"
attr unit  cqi
vector 150  CAIN.eNodeB1.nic.pdcpRrc  receivedPacketFromLowerLayer:vector(packetBytes)  ETV
attr interpolationmode  none
attr source  receivedPacketFromLowerLayer
vector 151  CAIN.eNodeB1.nic.pdcpRrc  sentPacketToUpperLayer:vector(packetBytes)  ETV
attr interpolationmode  none
attr source  sentPacketToUpperLayer
vector 275  CAIN.ueD2DTx[2].nic.mac  sentPacketToUpperLayer:vector(packetBytes)  ETV
attr interpolationmode  none
attr source  sentPacketToUpperLayer
vector 339  CAIN.ueD2DTx[4].nic.mac  sentPacketToUpperLayer:vector(packetBytes)  ETV
attr interpolationmode  none
attr source  sentPacketToUpperLayer
vector 243  CAIN.ueD2DTx[1].nic.mac  sentPacketToUpperLayer:vector(packetBytes)  ETV
attr interpolationmode  none
attr source  sentPacketToUpperLayer
vector 539  CAIN.ueD2DTx[10].nic.mac  CainHopMessageSent:vector  ETV
attr interpolationmode  none
attr title  "# of Sent CAIN hop message, vector"
vector 755  CAIN.ueD2DTx[17].nic.mac  sentPacketToUpperLayer:vector(packetBytes)  ETV
attr interpolationmode  none
attr source  sentPacketToUpperLayer
vector 219  CAIN.ueD2DTx[0].nic.mac  CainHopMessageSent:vector  ETV
attr interpolationmode  none
attr title  "# of Sent CAIN hop message, vector"
vector 402  CAIN.ueD2DTx[6].nic.mac  receivedPacketFromLowerLayer:vector(packetBytes)  ETV
attr interpolationmode  none
attr source  receivedPacketFromLowerLayer
vector 530  CAIN.ueD2DTx[10].nic.mac  receivedPacketFromLowerLayer:vector(packetBytes)  ETV
attr interpolationmode  none
attr source  receivedPacketFromLowerLayer
vector 441  CAIN.ueD2DTx[7].nic.mac  DropedHopMessage:vector  ETV
attr interpolationmode  none
attr title  "Droped Hop CAIN message due to RB not available, vector"
vector 435  CAIN.ueD2DTx[7].nic.mac  sentPacketToUpperLayer:vector(packetBytes)  ETV
attr interpolationmode  none
attr source  sentPacketToUpperLayer
1108	56127 24 150 150 0.0000001228 0.0000001228 1 0 0 0 0
1219	56151 28 235 235 0.0000006304 0.0000006304 1 65535 65535 65535 4294836225
1220	56179 27 235 235 0.0000006304 0.0000006304 1 8940 8940 8940 79923600
1221	56206 29 235 235 0.0000006304 0.0000006304 1 0.3725 0.3725 0.3725 0.13875625
1217	56235 24 235 235 0.0000006304 0.0000006304 1 3 3 3 9
1224	56259 24 235 235 0.0000006304 0.0000006304 1 1 1 1 1
1236	56283 24 163 163 0.0000003096 0.0000003096 1 0 0 0 0
1192	56307 28 235 235 0.0000006304 0.0000006304 1 65535 65535 65535 4294836225
1193	56335 27 235 235 0.0000006304 0.0000006304 1 8940 8940 8940 79923600
1194	56362 29 235 235 0.0000006304 0.0000006304 1 0.3725 0.3725 0.3725 0.13875625
1190	56391 24 235 235 0.0000006304 0.0000006304 1 3 3 3 9
1197	56415 24 235 235 0.0000006304 0.0000006304 1 1 1 1 1
1209	56439 24 163 163 0.0000003096 0.0000003096 1 0 0 0 0
910	56463 27 235 235 0.0000006304 0.0000006304 1 65535 65535 65535 4294836225
911	56490 26 235 235 0.0000006304 0.0000006304 1 8940 8940 8940 79923600
912	56516 28 235 235 0.0000006304 0.0000006304 1 0.3725 0.3725 0.3725 0.13875625
908	56544 46 235 302 0.0000006304 0.0000008564 2 1 3 4 10
909	56590 30 302 302 0.0000008564 0.0000008564 1 2.26e-07 2.26e-07 2.26e-07 5.1076e-14
914	56620 1757 3486 16633 0.0570000972 0.2570014396 63 2000 2062 127953 259893375
917	58377 44 207 221 0.000000552 0.000000596 2 1 2 3 5
916	58421 44 207 221 0.000000552 0.000000596 2 1 2 3 5
918	58465 46 302 308 0.0000008564 0.0000009004 2 1 2 3 5
927	58511 12 131 131 0 0 1 0 0 0 0
886	58523 86 3486 29419 0.0570000972 0.4570014396 3 65533 65535 196603 12884246539
890	58609 1645 3486 29419 0.0570000972 0.4570014396 66 0 112 128 12696
895	60254 74 3486 29419 0.0570000972 0.4570014396 3 0 0 0 0
896	60328 74 3486 29419 0.0570000972 0.4570014396 3 0 0 0 0
897	60402 74 3486 29419 0.0570000972 0.4570014396 3 0 0 0 0
898	60476 74 3486 29419 0.0570000972 0.4570014396 3 0 0 0 0
899	60550 74 3486 29419 0.0570000972 0.4570014396 3 0 0 0 0
900	60624 74 3486 29419 0.0570000972 0.4570014396 3 0 0 0 0
901	60698 74 3486 29419 0.0570000972 0.4570014396 3 0 0 0 0
902	60772 77 3486 29419 0.0570000972 0.4570014396 3 16 16 48 768
904	60849 27 163 163 0.0000003096 0.0000003096 1 65535 65535 65535 4294836225
906	60876 2071 3489 16690 0.0570000972 0.2570014396 63 9.72e-08 9.772e-07 5.58836e-05 5.367335792e-11
907	62947 12 131 131 0 0 1 0 0 0 0
1138	62959 27 178 178 0.000000458 0.000000458 1 65535 65535 65535 4294836225
1139	62986 26 178 178 0.000000458 0.000000458 1 8940 8940 8940 79923600
1140	63012 28 178 178 0.000000458 0.000000458 1 0.3725 0.3725 0.3725 0.13875625
1136	63040 23 178 178 0.000000458 0.000000458 1 3 3 3 9
1143	63063 23 178 178 0.000000458 0.000000458 1 1 1 1 1
1151	63086 76 636 26294 0.0070001912 0.4070015336 3 0 0 0 0
1152	63162 76 636 26294 0.0070001912 0.4070015336 3 0 0 0 0
1153	63238 76 636 26294 0.0070001912 0.4070015336 3 0 0 0 0
1155	63314 24 150 150 0.0000001228 0.0000001228 1 0 0 0 0
1111	63338 27 178 178 0.000000458 0.000000458 1 65535 65535 65535 4294836225
1112	63365 26 178 178 0.000000458 0.000000458 1 8940 8940 8940 79923600
1113	63391 28 178 178 0.000000458 0.000000458 1 0.3725 0.3725 0.3725 0.13875625
1109	63419 23 178 178 0.000000458 0.000000458 1 3 3 3 9
1116	63442 23 178 178 0.000000458 0.000000458 1 1 1 1 1
1124	63465 76 636 26294 0.0070001912 0.4070015336 3 0 0 0 0
1125	63541 76 636 26294 0.0070001912 0.4070015336 3 0 0 0 0
1126	63617 76 636 26294 0.0070001912 0.4070015336 3 0 0 0 0
1128	63693 24 150 150 0.0000001228 0.0000001228 1 0 0 0 0
1165	63717 57 178 76264 0.000000458 1.2070004624 2 65535 65535 131070 8589672450
1166	63774 55 178 76264 0.000000458 1.2070004624 2 8940 8940 17880 159847200
1167	63829 58 178 76264 0.000000458 1.2070004624 2 0.3725 23.84 24.2125 568.48435625
1163	63887 123 178 26294 0.000000458 0.4070015336 5 1 3 7 13
1164	64010 138 255 26294 0.0000006744 0.4070015336 4 1.912e-07 0.2000010712 0.40000175 0.080000536961304
1168	64148 1806 587 13247 0.007 0.2070004624 63 2000 2062 127953 259893375
1172	65954 48 273 287 0.0000007624 0.0000008064 2 1 2 3 5
1171	66002 48 273 287 0.0000007624 0.0000008064 2 1 2 3 5
1173	66050 48 255 265 0.0000006744 0.0000007184 2 1 2 3 5
1174	66098 3372 587 26294 0.007 0.4070015336 126 0 112 6346 468972
1175	69470 3372 587 26294 0.007 0.4070015336 126 0 112 6346 468972
1178	72842 76 636 26294 0.0070001912 0.4070015336 3 0 0 0 0
1179	72918 76 636 26294 0.0070001912 0.4070015336 3 0 0 0 0
1180	72994 76 636 26294 0.0070001912 0.4070015336 3 0 0 0 0
1181	73070 76 636 26294 0.0070001912 0.4070015336 3 0 0 0 0
1182	73146 24 150 150 0.0000001228 0.0000001228 1 0 0 0 0
1185	73170 85 636 26294 0.0070001912 0.4070015336 3 2000 2062 6068 12275880
1187	73255 76 636 26294 0.0070001912 0.4070015336 3 0 0 0 0
1188	73331 76 636 26294 0.0070001912 0.4070015336 3 0 0 0 0
1304	73407 76 636 26294 0.0070001912 0.4070015336 3 0 0 0 0
1305	73483 2830 587 13247 0.007 0.2070004624 126 0 56 3173 117243
848	76313 3246 587 26294 0.007 0.4070015336 126 0 112 6346 468972
847	79559 3246 587 26294 0.007 0.4070015336 126 0 112 6346 468972
849	82805 73 636 26294 0.0070001912 0.4070015336 3 0 0 0 0
850	82878 73 636 26294 0.0070001912 0.4070015336 3 0 0 0 0
859	82951 85 636 26294 0.0070001912 0.4070015336 3 65533 65535 196603 12884246539
860	83036 112 150 26294 0.0000001228 0.4070015336 4 65533 65535 262138 17179082764
863	83148 12 123 123 0 0 1 0 0 0 0
1005	83160 24 149 149 0.0000001228 0.0000001228 1 0 0 0 0
1273	83184 28 236 236 0.0000006304 0.0000006304 1 65535 65535 65535 4294836225
1274	83212 27 236 236 0.0000006304 0.0000006304 1 8940 8940 8940 79923600
1275	83239 29 236 236 0.0000006304 0.0000006304 1 0.3725 0.3725 0.3725 0.13875625
1271	83268 24 236 236 0.0000006304 0.0000006304 1 3 3 3 9
1278	83292 24 236 236 0.0000006304 0.0000006304 1 1 1 1 1
1290	83316 24 164 164 0.0000003096 0.0000003096 1 0 0 0 0
1246	83340 28 236 236 0.0000006304 0.0000006304 1 65535 65535 65535 4294836225
1247	83368 27 236 236 0.0000006304 0.0000006304 1 8940 8940 8940 79923600
1248	83395 29 236 236 0.0000006304 0.0000006304 1 0.3725 0.3725 0.3725 0.13875625
1244	83424 24 236 236 0.0000006304 0.0000006304 1 3 3 3 9
1251	83448 24 236 236 0.0000006304 0.0000006304 1 1 1 1 1
1263	83472 24 164 164 0.0000003096 0.0000003096 1 0 0 0 0
959	83496 27 236 236 0.0000006304 0.0000006304 1 65535 65535 65535 4294836225
960	83523 26 236 236 0.0000006304 0.0000006304 1 8940 8940 8940 79923600
961	83549 28 236 236 0.0000006304 0.0000006304 1 0.3725 0.3725 0.3725 0.13875625
957	83577 46 236 301 0.0000006304 0.0000008564 2 1 3 4 10
958	83623 30 301 301 0.0000008564 0.0000008564 1 2.26e-07 2.26e-07 2.26e-07 5.1076e-14
963	83653 1750 624 13254 0.0070000972 0.2070014396 63 2000 2062 127953 259893375
966	85403 44 208 222 0.000000552 0.000000596 2 1 2 3 5
965	85447 44 208 222 0.000000552 0.000000596 2 1 2 3 5
967	85491 46 301 307 0.0000008564 0.0000009004 2 1 2 3 5
976	85537 12 132 132 0 0 1 0 0 0 0
935	85549 85 624 26287 0.0070000972 0.4070014396 3 65533 65535 196603 12884246539
939	85634 1637 624 26287 0.0070000972 0.4070014396 66 0 112 128 12696
944	87271 73 624 26287 0.0070000972 0.4070014396 3 0 0 0 0
945	87344 73 624 26287 0.0070000972 0.4070014396 3 0 0 0 0
946	87417 73 624 26287 0.0070000972 0.4070014396 3 0 0 0 0
947	87490 73 624 26287 0.0070000972 0.4070014396 3 0 0 0 0
948	87563 73 624 26287 0.0070000972 0.4070014396 3 0 0 0 0
949	87636 73 624 26287 0.0070000972 0.4070014396 3 0 0 0 0
950	87709 73 624 26287 0.0070000972 0.4070014396 3 0 0 0 0
951	87782 76 624 26287 0.0070000972 0.4070014396 3 16 16 48 768
953	87858 27 164 164 0.0000003096 0.0000003096 1 65535 65535 65535 4294836225
955	87885 2064 627 13311 0.0070000972 0.2070014396 63 9.72e-08 9.772e-07 5.58836e-05 5.367335792e-11
956	89949 12 132 132 0 0 1 0 0 0 0
1035	89961 27 177 177 0.000000458 0.000000458 1 65535 65535 65535 4294836225
1036	89988 26 177 177 0.000000458 0.000000458 1 8940 8940 8940 79923600
1037	90014 28 177 177 0.000000458 0.000000458 1 0.3725 0.3725 0.3725 0.13875625
1033	90042 23 177 177 0.000000458 0.000000458 1 3 3 3 9
1040	90065 23 177 177 0.000000458 0.000000458 1 1 1 1 1
1048	90088 77 3498 29426 0.0570001912 0.4570015336 3 0 0 0 0
1049	90165 77 3498 29426 0.0570001912 0.4570015336 3 0 0 0 0
1050	90242 77 3498 29426 0.0570001912 0.4570015336 3 0 0 0 0
1052	90319 24 149 149 0.0000001228 0.0000001228 1 0 0 0 0
1008	90343 27 177 177 0.000000458 0.000000458 1 65535 65535 65535 4294836225
1009	90370 26 177 177 0.000000458 0.000000458 1 8940 8940 8940 79923600
1010	90396 28 177 177 0.000000458 0.000000458 1 0.3725 0.3725 0.3725 0.13875625
1006	90424 23 177 177 0.000000458 0.000000458 1 3 3 3 9
1013	90447 23 177 177 0.000000458 0.000000458 1 1 1 1 1
1021	90470 77 3498 29426 0.0570001912 0.4570015336 3 0 0 0 0
1022	90547 77 3498 29426 0.0570001912 0.4570015336 3 0 0 0 0
1023	90624 77 3498 29426 0.0570001912 0.4570015336 3 0 0 0 0
1025	90701 24 149 149 0.0000001228 0.0000001228 1 0 0 0 0
1062	90725 57 177 79402 0.000000458 1.2570004624 2 65535 65535 131070 8589672450
1063	90782 55 177 79402 0.000000458 1.2570004624 2 8940 8940 17880 159847200
1064	90837 58 177 79402 0.000000458 1.2570004624 2 0.3725 23.84 24.2125 568.48435625
1060	90895 124 177 29426 0.000000458 0.4570015336 5 1 3 7 13
1061	91019 139 256 29426 0.0000006744 0.4570015336 4 1.912e-07 0.2000010712 0.40000175 0.080000536961304
1065	91158 1813 3427 16626 0.057 0.2570004624 63 2000 2062 127953 259893375
1069	92971 48 274 288 0.0000007624 0.0000008064 2 1 2 3 5
1068	93019 48 274 288 0.0000007624 0.0000008064 2 1 2 3 5
1070	93067 48 256 266 0.0000006744 0.0000007184 2 1 2 3 5
1071	93115 3380 3427 29426 0.057 0.4570015336 126 0 112 6346 468972
1072	96495 3380 3427 29426 0.057 0.4570015336 126 0 112 6346 468972
1075	99875 77 3498 29426 0.0570001912 0.4570015336 3 0 0 0 0
1076	99952 77 3498 29426 0.0570001912 0.4570015336 3 0 0 0 0
1077	100029 77 3498 29426 0.0570001912 0.4570015336 3 0 0 0 0
1078	100106 77 3498 29426 0.0570001912 0.4570015336 3 0 0 0 0
1079	100183 24 149 149 0.0000001228 0.0000001228 1 0 0 0 0
1082	100207 86 3498 29426 0.0570001912 0.4570015336 3 2000 2062 6068 12275880
1084	100293 77 3498 29426 0.0570001912 0.4570015336 3 0 0 0 0
1085	100370 77 3498 29426 0.0570001912 0.4570015336 3 0 0 0 0
1300	100447 77 3498 29426 0.0570001912 0.4570015336 3 0 0 0 0
1301	100524 2851 3427 16626 0.057 0.2570004624 126 0 56 3173 117243
870	103375 3254 3427 29426 0.057 0.4570015336 126 0 112 6346 468972
869	106629 3254 3427 29426 0.057 0.4570015336 126 0 112 6346 468972
871	109883 74 3498 29426 0.0570001912 0.4570015336 3 0 0 0 0
872	109957 74 3498 29426 0.0570001912 0.4570015336 3 0 0 0 0
881	110031 86 3498 29426 0.0570001912 0.4570015336 3 65533 65535 196603 12884246539
882	110117 113 149 29426 0.0000001228 0.4570015336 4 65533 65535 262138 17179082764
885	110230 12 128 128 0 0 1 0 0 0 0
8	110242 8 0 0 0 0 1 0 0 0 0
9	110250 8 0 0 0 0 1 0 0 0 0
24	110258 9 0 0 0 0 1 0 0 0 0
25	110267 9 0 0 0 0 1 0 0 0 0
35	110276 9 0 0 0 0 1 0 0 0 0
36	110285 9 0 0 0 0 1 0 0 0 0
43	110294 434 3944 580091 0.0630001132 9.1050001132 17 52 52 884 45968
44	110728 434 3942 580089 0.0630001132 9.1050001132 17 52 52 884 45968
45	111162 425 3942 580089 0.0630001132 9.1050001132 17 1 17 153 1785
56	111587 9 0 0 0 0 1 0 0 0 0
57	111596 9 0 0 0 0 1 0 0 0 0
59	111605 434 3940 580087 0.0630001132 9.1050001132 17 79 79 1343 106097
63	112039 434 3940 580087 0.0630001132 9.1050001132 17 72 72 1224 88128
64	112473 434 3946 580093 0.0630001132 9.1050001132 17 72 72 1224 88128
66	112907 417 3946 580093 0.0630001132 9.1050001132 17 0 0 0 0
67	113324 9 0 0 0 0 1 0 0 0 0
68	113333 843 0 580095 0 9.1050001764 35 0 1 17 17
69	114176 434 3947 580094 0.0630001132 9.1050001132 17 79 79 1343 106097
73	114610 434 3947 580094 0.0630001132 9.1050001132 17 72 72 1224 88128
78	115044 9 0 0 0 0 1 0 0 0 0
79	115053 9 0 0 0 0 1 0 0 0 0
86	115062 331 2774 580029 0.048 9.105 18 52 52 936 48672
92	115393 331 2767 580025 0.048 9.105 18 45 45 810 36450
93	115724 331 2767 580025 0.048 9.105 18 44 44 792 34848
96	116055 916399 378 639016 0.002 10 52032 0 0 0 0
97	1032454 656 2468 580020 0.043 9.105 36 3 47 882 29142
98	1033110 267154 1241 639016 0.02 10 15304 0 0 0 0
99	1300264 502 2468 580020 0.043 9.105 28 0 26 333 6015
100	1300766 67827 3590 639001 0.058 10 3213 1 3213 5163291 11061490419
101	1368593 257736 1241 639016 0.02 10 11971 1 11971 71658406 571905738286
106	1626329 624640 1241 639016 0.02 10 30290 299 649 11517453 4550383485
108	2250969 59664 4393 638794 0.07 9.997 3210 1 3 9622 28856
109	2310633 236039 4497 638904 0.072 9.998 11896 12 19 200902 3436542
111	2546672 674736 1241 639016 0.02 10 30318 1 30318 459605721 9289704034759
112	3221408 610343 1241 639016 0.02 10 30318 60 488 5225355 1336120409
113	3831751 564570 1241 639016 0.02 10 30318 0 0 0 0
115	4396321 664 2293 579820 0.04 9.102 36 2 15 249 2271
117	4396985 331 3894 580031 0.063 9.105 17 72 72 1224 88128
119	4397316 314 3894 580031 0.063 9.105 17 0 0 0 0
120	4397630 10 0 0 0 0 1 0 0 0 0
121	4397640 758 0 580086 0 9.1050000632 35 0 1 17 17
122	4398398 331 3895 580032 0.063 9.105 17 79 79 1343 106097
126	4398729 331 3895 580032 0.063 9.105 17 72 72 1224 88128
128	4399060 439 139 29421 0 0.4570014396 19 36 1152 2356 1432144
130	4399499 455 139 29421 0 0.4570014396 19 0 8.8e-08 3.088e-07 1.946112e-14
131	4399954 280 0 258 0 0.0000007124 13 0 2 10 14
132	4400234 869 0 29423 0 0.4570014836 39 0 1 19 19
133	4401103 441 141 29422 0 0.4570014396 19 43 1159 2489 1466059
134	4401544 442 146 26292 0.0000001228 0.4070015336 18 43 1159 2410 1459818
137	4401986 441 141 29422 0 0.4570014396 19 36 1152 2356 1432144
138	4402427 442 146 26292 0.0000001228 0.4070015336 18 36 1152 2284 1426960
141	4402869 1568 3491 16801 0.0570000972 0.2570014396 63 2 2 126 252
145	4404437 476 2823 580098 0.0480001132 9.1050002264 18 52 52 936 48672
146	4404913 467 2823 580098 0.0480001132 9.1050002264 18 1 18 171 2109
149	4405380 118 3412 6847 0.057 0.1050002264 5 44 44 220 9680
150	4405498 179 190099 579861 3.03 9.103 9 45 45 405 18225
151	4405677 179 190099 579861 3.03 9.103 9 44 44 396 17424
152	4405856 118 3412 6847 0.057 0.1050002264 5 45 45 225 10125
153	4405974 136 3436 7188 0.057 0.111 6 45 47 272 12334
154	4406110 223952 3626 638898 0.059 9.998 12024 0 0 0 0
155	4630062 349 7184 579857 0.111 9.103 18 0 47 439 16607
156	4630411 12167 3626 638968 0.059 10 647 0 0 0 0
157	4642578 270 7184 579783 0.111 9.102 14 0 26 160 2858
169	4642848 4335 3626 638898 0.059 9.998 212 1 212 22578 3198550
170	4647183 4282 3626 638898 0.059 9.998 212 66 532 31387 9859605
171	4651465 4019 3626 638898 0.059 9.998 212 0 0 0 0
173	4655484 4220 189949 638790 3.027 9.997 212 4 15 3037 44807
178	4659704 10 0 0 0 0 1 0 0 0 0
179	4659714 10 0 0 0 0 1 0 0 0 0
181	4659724 451 3949 580096 0.0630002264 9.1050002264 17 79 79 1343 106097
185	4660175 451 3949 580096 0.0630002264 9.1050002264 17 72 72 1224 88128
186	4660626 422 140 26289 0 0.4070014396 18 36 1152 2284 1426960
188	4661048 439 140 26289 0 0.4070014396 18 0 8.8e-08 3.088e-07 1.946112e-14
189	4661487 280 0 257 0 0.0000007124 13 0 2 10 14
190	4661767 830 0 26291 0 0.4070014836 37 0 1 18 18
191	4662597 424 142 26290 0 0.4070014396 18 43 1159 2410 1459818
192	4663021 466 145 29424 0.0000001228 0.4570015336 19 43 1159 2489 1466059
195	4663487 424 142 26290 0 0.4070014396 18 36 1152 2284 1426960
196	4663911 466 145 29424 0.0000001228 0.4570015336 19 36 1152 2356 1432144
199	4664377 1561 629 13422 0.0070000972 0.2070014396 63 2 2 126 252
205	4665938 85 5625 578817 0.088784986169 9.088784986169 3 44 44 132 5808
206	4666023 18 7423 7423 0.115 0.115 1 45 45 45 2025
207	4666041 18 7423 7423 0.115 0.115 1 44 44 44 1936
208	4666059 85 5625 578817 0.088784986169 9.088784986169 3 45 45 135 6075
209	4666144 85 5628 578820 0.088784986169 9.088784986169 3 45 45 135 6075
210	4666229 25517 7269 638998 0.112 10 1384 0 0 0 0
211	4691746 18 7419 7419 0.115 0.115 1 47 47 47 2209
212	4691764 51811 5631 638998 0.089 10 2768 0 0 0 0
218	4743575 29295 5631 638908 0.089 9.999 1382 1 1382 955653 880793515
219	4772870 38 195478 579917 3.104 9.104 2 1 2 3 5
228	4772908 17 7268 7268 0.112 0.112 1 2 2 2 4
231	4772925 163 0 6745 0 0.105 10 1 2 19 37
237	4773088 85 4015 576979 0.064770889489 9.064770889489 3 44 44 132 5808
240	4773173 85 4015 576979 0.064770889489 9.064770889489 3 45 45 135 6075
241	4773258 125 4018 577347 0.064770889489 9.069 5 45 47 229 10493
242	4773383 258 1921 577851 0.034 9.075 14 0 0 0 0
243	4773641 38 192977 577343 3.069 9.069 2 0 0 0 0
244	4773679 182 1921 577851 0.034 9.075 10 0 0 0 0
263	4773861 163 0 6746 0 0.105 10 1 2 19 37
269	4774024 85 1854 574576 0.032649362497 9.032649362497 3 44 44 132 5808
272	4774109 85 1854 574576 0.032649362497 9.032649362497 3 45 45 135 6075
273	4774194 202 1857 575313 0.032649362497 9.043 9 3 45 237 8703
274	4774396 639 1331 580135 0.023 9.106 35 0 0 0 0
275	4775035 114 190600 575309 3.037 9.043 6 0 0 0 0
276	4775149 574 1331 580135 0.023 9.106 32 0 0 0 0
283	4775723 85 1862 3106 0.033 0.053 5 1 5 15 55
295	4775808 163 0 6747 0 0.105 10 1 2 19 37
301	4775971 85 2052 574826 0.036651693161 9.036651693161 3 44 44 132 5808
304	4776056 85 2052 574826 0.036651693161 9.036651693161 3 45 45 135 6075
305	4776141 85 2055 574829 0.036651693161 9.036651693161 3 45 45 135 6075
308	4776226 37532 2103 638763 0.037 9.997 1993 0 0 0 0
315	4813758 42404 2103 638763 0.037 9.997 1993 1 1993 1987021 2640750909
327	4856162 10 0 0 0 0 1 1 1 1 1
333	4856172 85 3540 576424 0.057963030662 9.057963030662 3 44 44 132 5808
336	4856257 85 3540 576424 0.057963030662 9.057963030662 3 45 45 135 6075
337	4856342 125 3543 576729 0.057963030662 9.062 5 45 47 229 10493
338	4856467 835 1381 577204 0.024 9.067 48 0 0 0 0
339	4857302 38 192406 576725 3.062 9.062 2 0 0 0 0
340	4857340 473 1381 577204 0.024 9.067 27 0 0 0 0
345	4857813 297 1520 3480 0.026 0.057 17 1 17 153 1785
359	4858110 163 0 6748 0 0.105 10 1 2 19 37
365	4858273 82 6143 579381 0.09658703896 9.09658703896 3 44 44 132 5808
368	4858355 82 6143 579381 0.09658703896 9.09658703896 3 45 45 135 6075
369	4858437 82 6146 579384 0.09658703896 9.09658703896 3 45 45 135 6075
372	4858519 37328 6175 638766 0.097 9.997 1981 0 0 0 0
379	4895847 42164 6175 638766 0.097 9.997 1981 1 1981 1963171 2593348891
391	4938011 10 0 0 0 0 1 1 1 1 1
397	4938021 82 1525 574163 0.02660460389 9.02660460389 3 44 44 132 5808
400	4938103 82 1525 574163 0.02660460389 9.02660460389 3 45 45 135 6075
401	4938185 82 1528 574166 0.02660460389 9.02660460389 3 45 45 135 6075
402	4938267 42883 397450 638936 6.208 9.999 2257 0 0 0 0
404	4981150 80449 1537 638936 0.027 9.999 4252 0 0 0 0
411	5061599 42444 1537 638768 0.027 9.997 1995 1 1995 1991010 2648706970
423	5104043 10 0 0 0 0 1 1 1 1 1
429	5104053 85 3315 576250 0.055890854003 9.055890854003 3 44 44 132 5808
432	5104138 85 3315 576250 0.055890854003 9.055890854003 3 45 45 135 6075
433	5104223 202 3318 577094 0.055890854003 9.066 9 3 45 282 10314
434	5104425 167640 1107 638942 0.018 9.999 8927 0 0 0 0
435	5272065 112 397864 577090 6.215 9.066 6 0 0 0 0
436	5272177 190532 1107 638942 0.018 9.999 10149 0 0 0 0
441	5462709 19 397652 397652 6.211 6.211 1 1 1 1 1
442	5462728 25647 3329 397281 0.056 6.206 1231 1 1231 758296 622561016
455	5488375 10 0 0 0 0 1 1 1 1 1
461	5488385 85 2317 575134 0.040940929686 9.040940929686 3 44 44 132 5808
464	5488470 85 2317 575134 0.040940929686 9.040940929686 3 45 45 135 6075
465	5488555 85 2320 575137 0.040940929686 9.040940929686 3 45 45 135 6075
468	5488640 37514 2331 638695 0.041 9.996 1992 0 0 0 0
475	5526154 42383 2331 638695 0.041 9.996 1992 1 1992 1985028 2636778860
487	5568537 10 0 0 0 0 1 1 1 1 1
493	5568547 85 4981 578153 0.079275280847 9.079275280847 3 44 44 132 5808
496	5568632 85 4981 578153 0.079275280847 9.079275280847 3 45 45 135 6075
497	5568717 143 4984 578465 0.079275280847 9.084 6 45 47 276 12702
498	5568860 224383 1635 639004 0.029 10 11975 0 0 0 0
499	5793243 55 5268 578461 0.084 9.084 3 0 0 0 0
500	5793298 223743 1635 639004 0.029 10 11938 0 0 0 0
505	6017041 549 1774 5183 0.031 0.082 31 1 31 496 10416
519	6017590 10 0 0 0 0 1 1 1 1 1
525	6017600 85 5190 578376 0.082257983647 9.082257983647 3 44 44 132 5808
528	6017685 85 5190 578376 0.082257983647 9.082257983647 3 45 45 135 6075
529	6017770 85 5193 578379 0.082257983647 9.082257983647 3 45 45 135 6075
530	6017855 42921 397453 638895 6.208 9.998 2259 0 0 0 0
532	6060776 80301 5206 638895 0.083 9.998 4243 0 0 0 0
538	6141077 42181 5206 638818 0.083 9.998 1982 1 1982 1965153 2597277215
539	6183258 38 193254 193610 3.073 3.078 2 1 2 3 5
551	6183296 10 0 0 0 0 1 1 1 1 1
557	6183306 82 2831 575749 0.04821039218 9.04821039218 3 44 44 132 5808
560	6183388 82 2831 575749 0.04821039218 9.04821039218 3 45 45 135 6075
561	6183470 256 2834 576507 0.04821039218 9.059 12 15 45 288 8748
562	6183726 40327 3044 576950 0.051 9.064 2137 0 0 0 0
563	6224053 165 3116 576503 0.053 9.059 9 0 0 0 0
564	6224218 40107 2889 576877 0.049 9.063 2125 0 0 0 0
583	6264325 10 0 0 0 0 1 1 1 1 1
589	6264335 85 1602 574271 0.028371024961 9.028371024961 3 44 44 132 5808
592	6264420 85 1602 574271 0.028371024961 9.028371024961 3 45 45 135 6075
593	6264505 85 1605 574274 0.028371024961 9.028371024961 3 45 45 135 6075
596	6264590 26607 1620 638921 0.029 9.999 1401 0 0 0 0
603	6291197 29703 1620 638921 0.029 9.999 1401 1 1401 982101 917609701
615	6320900 163 0 6749 0 0.105 10 1 2 19 37
621	6321063 85 1033 573482 0.016038050947 9.016038050947 3 44 44 132 5808
624	6321148 85 1033 573482 0.016038050947 9.016038050947 3 45 45 135 6075
625	6321233 85 1036 573485 0.016038050947 9.016038050947 3 45 45 135 6075
628	6321318 37600 1052 638776 0.017 9.997 1997 0 0 0 0
635	6358918 42484 1052 638776 0.017 9.997 1997 1 1997 1995003 2656678995
647	6401402 10 0 0 0 0 1 1 1 1 1
653	6401412 85 1560 574218 0.027878343419 9.027878343419 3 44 44 132 5808
656	6401497 85 1560 574218 0.027878343419 9.027878343419 3 45 45 135 6075
657	6401582 85 1563 574221 0.027878343419 9.027878343419 3 45 45 135 6075
660	6401667 37567 1580 638823 0.028 9.998 1995 0 0 0 0
667	6439234 42445 1580 638823 0.028 9.998 1995 1 1995 1991010 2648706970
679	6481679 10 0 0 0 0 1 1 1 1 1
685	6481689 85 1939 574683 0.034516076937 9.034516076937 3 44 44 132 5808
688	6481774 85 1939 574683 0.034516076937 9.034516076937 3 45 45 135 6075
689	6481859 201 1942 575385 0.034516076937 9.044 9 19 45 282 9858
690	6482060 981 2127 575809 0.037 9.049 54 0 0 0 0
691	6483041 110 2234 575381 0.039 9.044 6 0 0 0 0
692	6483151 758 1960 575809 0.035 9.049 42 0 0 0 0
711	6483909 10 0 0 0 0 1 1 1 1 1
717	6483919 85 3962 576912 0.063891002787 9.063891002787 3 44 44 132 5808
720	6484004 85 3962 576912 0.063891002787 9.063891002787 3 45 45 135 6075
721	6484089 253 3965 577729 0.063891002787 9.074 12 5 45 288 11268
722	6484342 202864 1175 638948 0.019 9.999 10801 0 0 0 0
723	6687206 165 4200 577725 0.068 9.074 9 0 0 0 0
724	6687371 202440 1175 638948 0.019 9.999 10777 0 0 0 0
728	6889811 34 3643 4007 0.059 0.064 2 1 2 3 5
729	6889845 171 1268 4121 0.021 0.066 10 1 10 55 385
743	6890016 10 0 0 0 0 1 1 1 1 1
749	6890026 85 5617 578810 0.088577514598 9.088577514598 3 44 44 132 5808
752	6890111 85 5617 578810 0.088577514598 9.088577514598 3 45 45 135 6075
753	6890196 201 5620 579599 0.088577514598 9.099 9 7 45 237 9009
754	6890397 25915 5726 638995 0.09 10 1405 0 0 0 0
755	6916312 114 194722 579595 3.093 9.099 6 0 0 0 0
756	6916426 25763 5649 638995 0.089 10 1397 0 0 0 0
775	6942189 163 0 6750 0 0.105 10 1 2 19 37
781	6942352 85 1273 573817 0.021540784608 9.021540784608 3 44 44 132 5808
784	6942437 85 1273 573817 0.021540784608 9.021540784608 3 45 45 135 6075
785	6942522 105 1276 573820 0.021540784608 9.021540784608 4 45 47 182 8284
786	6942627 37587 189727 638993 3.024 10 1984 0 0 0 0
787	6980214 19 189825 189825 3.026 3.026 1 0 0 0 0
788	6980233 34072 1298 638782 0.022 9.997 1794 0 0 0 0
795	7014305 119 1298 3085 0.022 0.052 7 1 7 28 140
807	7014424 163 0 6751 0 0.105 10 1 2 19 37
813	7014587 85 6135 579374 0.096236986774 9.096236986774 3 44 44 132 5808
816	7014672 85 6135 579374 0.096236986774 9.096236986774 3 45 45 135 6075
817	7014757 143 6138 579729 0.096236986774 9.101 6 45 47 276 12702
818	7014900 74186 2513 639019 0.043 10 3999 0 0 0 0
819	7089086 55 6480 579725 0.101 9.101 3 0 0 0 0
820	7089141 73900 2513 639019 0.043 10 3982 0 0 0 0
825	7163041 184 2661 6069 0.045 0.095 11 1 11 66 506
839	7163225 10 0 0 0 0 1 1 1 1 1
1319	7163235 94 1030 573479 0.016038050947 9.016038050947 3 7504 7504 22512 168930048
1320	7163329 94 1030 573479 0.016038050947 9.016038050947 3 7504 7504 22512 168930048
1322	7163423 85 1030 573479 0.016038050947 9.016038050947 3 0 0 0 0
1333	7163508 85 1030 573479 0.016038050947 9.016038050947 3 0 0 0 0
1343	7163593 94 1270 573814 0.021540784608 9.021540784608 3 7504 7504 22512 168930048
1344	7163687 94 1270 573814 0.021540784608 9.021540784608 3 7504 7504 22512 168930048
1346	7163781 85 1270 573814 0.021540784608 9.021540784608 3 0 0 0 0
1357	7163866 85 1270 573814 0.021540784608 9.021540784608 3 0 0 0 0
1367	7163951 91 1522 574160 0.02660460389 9.02660460389 3 7504 7504 22512 168930048
1368	7164042 91 1522 574160 0.02660460389 9.02660460389 3 7504 7504 22512 168930048
1370	7164133 82 1522 574160 0.02660460389 9.02660460389 3 0 0 0 0
1381	7164215 82 1522 574160 0.02660460389 9.02660460389 3 0 0 0 0
1391	7164297 94 1557 574215 0.027878343419 9.027878343419 3 7504 7504 22512 168930048
1392	7164391 94 1557 574215 0.027878343419 9.027878343419 3 7504 7504 22512 168930048
1394	7164485 85 1557 574215 0.027878343419 9.027878343419 3 0 0 0 0
1405	7164570 85 1557 574215 0.027878343419 9.027878343419 3 0 0 0 0
1415	7164655 94 1599 574268 0.028371024961 9.028371024961 3 7504 7504 22512 168930048
1416	7164749 94 1599 574268 0.028371024961 9.028371024961 3 7504 7504 22512 168930048
1418	7164843 85 1599 574268 0.028371024961 9.028371024961 3 0 0 0 0
1429	7164928 85 1599 574268 0.028371024961 9.028371024961 3 0 0 0 0
1439	7165013 94 1851 574573 0.032649362497 9.032649362497 3 7504 7504 22512 168930048
1440	7165107 94 1851 574573 0.032649362497 9.032649362497 3 7504 7504 22512 168930048
1442	7165201 85 1851 574573 0.032649362497 9.032649362497 3 0 0 0 0
1453	7165286 85 1851 574573 0.032649362497 9.032649362497 3 0 0 0 0
1463	7165371 94 1936 574680 0.034516076937 9.034516076937 3 7504 7504 22512 168930048
1464	7165465 94 1936 574680 0.034516076937 9.034516076937 3 7504 7504 22512 168930048
1466	7165559 85 1936 574680 0.034516076937 9.034516076937 3 0 0 0 0
1477	7165644 85 1936 574680 0.034516076937 9.034516076937 3 0 0 0 0
1487	7165729 94 2049 574823 0.036651693161 9.036651693161 3 7504 7504 22512 168930048
1488	7165823 94 2049 574823 0.036651693161 9.036651693161 3 7504 7504 22512 168930048
1490	7165917 85 2049 574823 0.036651693161 9.036651693161 3 0 0 0 0
1501	7166002 85 2049 574823 0.036651693161 9.036651693161 3 0 0 0 0
1511	7166087 94 2314 575131 0.040940929686 9.040940929686 3 7504 7504 22512 168930048
1512	7166181 94 2314 575131 0.040940929686 9.040940929686 3 7504 7504 22512 168930048
1514	7166275 85 2314 575131 0.040940929686 9.040940929686 3 0 0 0 0
1525	7166360 85 2314 575131 0.040940929686 9.040940929686 3 0 0 0 0
1535	7166445 91 2828 575746 0.04821039218 9.04821039218 3 7504 7504 22512 168930048
1536	7166536 91 2828 575746 0.04821039218 9.04821039218 3 7504 7504 22512 168930048
1538	7166627 82 2828 575746 0.04821039218 9.04821039218 3 0 0 0 0
1549	7166709 82 2828 575746 0.04821039218 9.04821039218 3 0 0 0 0
1559	7166791 94 3312 576247 0.055890854003 9.055890854003 3 7504 7504 22512 168930048
1560	7166885 94 3312 576247 0.055890854003 9.055890854003 3 7504 7504 22512 168930048
1562	7166979 85 3312 576247 0.055890854003 9.055890854003 3 0 0 0 0
1573	7167064 85 3312 576247 0.055890854003 9.055890854003 3 0 0 0 0
1583	7167149 94 3537 576421 0.057963030662 9.057963030662 3 7504 7504 22512 168930048
1584	7167243 94 3537 576421 0.057963030662 9.057963030662 3 7504 7504 22512 168930048
1586	7167337 85 3537 576421 0.057963030662 9.057963030662 3 0 0 0 0
1597	7167422 85 3537 576421 0.057963030662 9.057963030662 3 0 0 0 0
1607	7167507 94 3959 576909 0.063891002787 9.063891002787 3 7504 7504 22512 168930048
1608	7167601 94 3959 576909 0.063891002787 9.063891002787 3 7504 7504 22512 168930048
1610	7167695 85 3959 576909 0.063891002787 9.063891002787 3 0 0 0 0
1621	7167780 85 3959 576909 0.063891002787 9.063891002787 3 0 0 0 0
1631	7167865 94 4012 576976 0.064770889489 9.064770889489 3 7504 7504 22512 168930048
1632	7167959 94 4012 576976 0.064770889489 9.064770889489 3 7504 7504 22512 168930048
1634	7168053 85 4012 576976 0.064770889489 9.064770889489 3 0 0 0 0
1645	7168138 85 4012 576976 0.064770889489 9.064770889489 3 0 0 0 0
1655	7168223 94 4978 578150 0.079275280847 9.079275280847 3 7504 7504 22512 168930048
1656	7168317 94 4978 578150 0.079275280847 9.079275280847 3 7504 7504 22512 168930048
1658	7168411 85 4978 578150 0.079275280847 9.079275280847 3 0 0 0 0
1669	7168496 85 4978 578150 0.079275280847 9.079275280847 3 0 0 0 0
1679	7168581 94 5187 578373 0.082257983647 9.082257983647 3 7504 7504 22512 168930048
1680	7168675 94 5187 578373 0.082257983647 9.082257983647 3 7504 7504 22512 168930048
1682	7168769 85 5187 578373 0.082257983647 9.082257983647 3 0 0 0 0
1693	7168854 85 5187 578373 0.082257983647 9.082257983647 3 0 0 0 0
1703	7168939 94 5614 578807 0.088577514598 9.088577514598 3 7504 7504 22512 168930048
1704	7169033 94 5614 578807 0.088577514598 9.088577514598 3 7504 7504 22512 168930048
1706	7169127 85 5614 578807 0.088577514598 9.088577514598 3 0 0 0 0
1717	7169212 85 5614 578807 0.088577514598 9.088577514598 3 0 0 0 0
1727	7169297 94 5622 578814 0.088784986169 9.088784986169 3 7504 7504 22512 168930048
1728	7169391 94 5622 578814 0.088784986169 9.088784986169 3 7504 7504 22512 168930048
1730	7169485 85 5622 578814 0.088784986169 9.088784986169 3 0 0 0 0
1741	7169570 85 5622 578814 0.088784986169 9.088784986169 3 0 0 0 0
1751	7169655 94 6132 579371 0.096236986774 9.096236986774 3 7504 7504 22512 168930048
1752	7169749 94 6132 579371 0.096236986774 9.096236986774 3 7504 7504 22512 168930048
1754	7169843 85 6132 579371 0.096236986774 9.096236986774 3 0 0 0 0
1765	7169928 85 6132 579371 0.096236986774 9.096236986774 3 0 0 0 0
1775	7170013 91 6140 579378 0.09658703896 9.09658703896 3 7504 7504 22512 168930048
1776	7170104 91 6140 579378 0.09658703896 9.09658703896 3 7504 7504 22512 168930048
1778	7170195 82 6140 579378 0.09658703896 9.09658703896 3 0 0 0 0
1789	7170277 82 6140 579378 0.09658703896 9.09658703896 3 0 0 0 0
