file 8327001 1589560840                                         
version 2
run CAIN-1-20200515-13:36:04-15436
attr configname CAIN
attr datetime 20200515-13:36:04
attr dist 200
attr experiment CAIN
attr inifile omnetpp.ini
attr iterationvars "$numUe=20, $pwr=-50, $dist=200, $mob=\"./movements/RWP-0.0.movements\""
attr iterationvars2 "$numUe=20, $pwr=-50, $dist=200, $mob=\"./movements/RWP-0.0.movements\", $repetition=1"
attr measurement "$numUe=20, $pwr=-50, $dist=200, $mob=\"./movements/RWP-0.0.movements\""
attr mob "\"./movements/RWP-0.0.movements\""
attr network lte.simulations.networks.CAIN
attr numUe 20
attr processid 15436
attr pwr -50
attr repetition 1
attr replication #1
attr resultdir results
attr runnumber 1
attr seedset 1
param **.**.amcMode "\"AUTO\""
param **.amcMode "\"D2D\""
param **.cainNetwork true
param **.channelControl.alpha 1.0
param **.channelControl.carrierFrequency 2100e+6Hz
param **.channelControl.pMax 10W
param **.d2dCqi 7
param **.deployer.numRbDl 50
param **.deployer.numRbUl 50
param **.distThresh ${dist=200}
param **.fbDelay 1
param **.feedbackComputation "xmldoc(\"config_channel.xml\")"
param **.mobility.constraintAreaMaxX 1000m
param **.mobility.constraintAreaMaxY 1000m
param **.mobility.constraintAreaMaxZ 0m
param **.mobility.constraintAreaMinX 0m
param **.mobility.constraintAreaMinY 0m
param **.mobility.constraintAreaMinZ 0m
param **.nic.phy.channelModel "xmldoc(\"config_channel.xml\")"
param **.numBands 50
param **.pwrThresh "${pwr= -50}"
param **.qtdThresh 3
param **.rbAllocationType "\"localized\""
param **.routingRecorder.enabled false
param **.tcpApp[*].tClose -1s
param **.ueD2DTx[*].mobility.changeAngleBy "normal(0deg, 30deg)"
param **.ueD2DTx[*].mobility.changeInterval "normal(5s, 0.1s)"
param **.ueD2DTx[*].mobility.nodeId -1
param **.ueD2DTx[*].mobility.speed "normal(2mps, 0.01mps)"
param **.ueD2DTx[*].mobility.traceFile "${mob=\"./movements/RWP-0.0.movements\",\"./movements/RWP-0.5.movements\",\"./movements/RPGM-0.0.movements\",\"./movements/RPGM-0.5.movements\",\"./movements/RWPRPGM-0.0.movements\",\"./movements/RWPRPGM-0.5.movements\"}"
param **.ueD2DTx[*].mobilityType "\"BonnMotionMobility\""
param **.usePreconfiguredTxParams false
param *.eNodeB*.numX2Apps 1
param *.eNodeB*.x2App[*].server.localPort "5000 + ancestorIndex(1)"
param *.eNodeB.d2dCapable false
param *.eNodeB.mobility.initFromDisplayString false
param *.eNodeB.mobility.initialX 300m
param *.eNodeB.mobility.initialY 300m
param *.eNodeB.nic.phy.enableD2DCqiReporting true
param *.eNodeB.txPower 19952.62315mw
param *.eNodeB.x2App[0].client.connectAddress "\"eNodeB1%x2ppp0\""
param *.eNodeB1.d2dCapable true
param *.eNodeB1.mobility.initFromDisplayString false
param *.eNodeB1.mobility.initialX 700m
param *.eNodeB1.mobility.initialY 300m
param *.eNodeB1.nic.phy.enableD2DCqiReporting true
param *.eNodeB1.txPower 19952.62315mw
param *.eNodeB1.x2App[0].client.connectAddress "\"eNodeB%x2ppp0\""
param *.extCell[*].bandAllocationType "\"FULL_ALLOC\""
param *.extCell[*].bandUtilization 0.5
param *.extCell[*].txDirection "\"ANISOTROPIC\""
param *.extCell[*].txPower 20
param *.extCell[0].position_x 100m
param *.extCell[0].position_y 600m
param *.extCell[0].txAngle 315
param *.extCell[1].position_x 600m
param *.extCell[1].position_y 600m
param *.extCell[1].txAngle 225
param *.numExtCells 2
param *.numUeCell 0
param *.numUeD2DRx 1
param *.numUeD2DTx 1
param *.ue*.macCellId 1
param *.ue*.masterId 1
param *.ue*.mobility.initFromDisplayString false
param *.ue*[0].macCellId 1
param *.ue*[0].masterId 1
param *.ue*[0].mobility.initFromDisplayString false
param *.ueD2D*.numTcpApps 1
param *.ueD2D*[*].d2dCapable true
param *.ueD2D*[0].d2dCapable false
param *.ueD2D*[0].numTcpApps 1
param *.ueD2DRx[0].mobility.initialX 310m
param *.ueD2DRx[0].mobility.initialY 350m
param *.ueD2DRx[0].tcpApp[*].localPort 1000
param *.ueD2DRx[0].tcpApp[*].typename "\"TCPSinkApp\""
param *.ueD2DTx*.nic.d2dPeerAddresses "\"ueD2DTx[1]\""
param *.ueD2DTx*.tcpApp[*].connectAddress "\"ueD2DTx[0]\""
param *.ueD2DTx*.tcpApp[*].localAddress "\"ueD2DTx\""
param *.ueD2DTx*.tcpApp[*].localPort 1000
param *.ueD2DTx*.tcpApp[*].sendBytes 1GiB
param *.ueD2DTx*.tcpApp[*].typename "\"TCPSessionApp\""
param *.ueD2DTx*.tcpApp[0].active true
param *.ueD2DTx*.tcpApp[0].connectPort 1000
param *.ueD2DTx*.tcpApp[0].tOpen uniform(0.010s,0.1s)
param *.ueD2DTx*.tcpApp[0].tSend uniform(0.15s,0.5s)
param *.ueD2DTx[0].mobility.initialX 290m
param *.ueD2DTx[0].mobility.initialY 350m
param *.ueD2DTx[0].tcpApp[*].localPort 1000
param *.ueD2DTx[0].tcpApp[*].sendBytes 1GiB
param *.ueD2DTx[0].tcpApp[*].typename "\"TCPSessionApp\""
param *.ueD2DTx[0].tcpApp[0].active true
param *.ueD2DTx[0].tcpApp[0].connectAddress "\"ueD2DRx[0]\""
param *.ueD2DTx[0].tcpApp[0].connectPort 1000
param *.ueD2DTx[0].tcpApp[0].localAddress "\"ueD2DTx[0]\""
param *.ueD2DTx[0].tcpApp[0].tOpen uniform(0.010s,0.1s)
param *.ueD2DTx[0].tcpApp[0].tSend uniform(0.15s,0.5s)

vector 8  CAIN.server.ppp[0].queue  queueLength:vector  ETV
attr interpolationmode  sample-hold
attr title  "queue length, vector"
vector 9  CAIN.server.ppp[0].ppp  txState:vector  ETV
attr interpolationmode  sample-hold
attr title  "tx state, vector"
vector 24  CAIN.router.ppp[0].queue  queueLength:vector  ETV
attr interpolationmode  sample-hold
attr title  "queue length, vector"
vector 25  CAIN.router.ppp[0].ppp  txState:vector  ETV
attr interpolationmode  sample-hold
attr title  "tx state, vector"
vector 35  CAIN.router.ppp[1].queue  queueLength:vector  ETV
attr interpolationmode  sample-hold
attr title  "queue length, vector"
vector 36  CAIN.router.ppp[1].ppp  txState:vector  ETV
attr interpolationmode  sample-hold
attr title  "tx state, vector"
vector 56  CAIN.pgw.ppp[0].queue  queueLength:vector  ETV
attr interpolationmode  sample-hold
attr title  "queue length, vector"
vector 57  CAIN.pgw.ppp[0].ppp  txState:vector  ETV
attr interpolationmode  sample-hold
attr title  "tx state, vector"
vector 67  CAIN.pgw.ppp[1].queue  queueLength:vector  ETV
attr interpolationmode  sample-hold
attr title  "queue length, vector"
vector 68  CAIN.pgw.ppp[1].ppp  txState:vector  ETV
attr interpolationmode  sample-hold
attr title  "tx state, vector"
vector 78  CAIN.pgw.pppInterface.queue  queueLength:vector  ETV
attr interpolationmode  sample-hold
attr title  "queue length, vector"
vector 79  CAIN.pgw.pppInterface.ppp  txState:vector  ETV
attr interpolationmode  sample-hold
attr title  "tx state, vector"
vector 120  CAIN.eNodeB.pppIf.queue  queueLength:vector  ETV
attr interpolationmode  sample-hold
attr title  "queue length, vector"
vector 121  CAIN.eNodeB.pppIf.ppp  txState:vector  ETV
attr interpolationmode  sample-hold
attr title  "tx state, vector"
vector 131  CAIN.eNodeB.x2ppp[0].queue  queueLength:vector  ETV
attr interpolationmode  sample-hold
attr title  "queue length, vector"
vector 132  CAIN.eNodeB.x2ppp[0].ppp  txState:vector  ETV
attr interpolationmode  sample-hold
attr title  "tx state, vector"
vector 178  CAIN.eNodeB1.pppIf.queue  queueLength:vector  ETV
attr interpolationmode  sample-hold
attr title  "queue length, vector"
vector 179  CAIN.eNodeB1.pppIf.ppp  txState:vector  ETV
attr interpolationmode  sample-hold
attr title  "tx state, vector"
vector 189  CAIN.eNodeB1.x2ppp[0].queue  queueLength:vector  ETV
attr interpolationmode  sample-hold
attr title  "queue length, vector"
vector 190  CAIN.eNodeB1.x2ppp[0].ppp  txState:vector  ETV
attr interpolationmode  sample-hold
attr title  "tx state, vector"
vector 231  CAIN.ueD2DTx[0].nic.phy  servingCell:vector  ETV
attr source  servingCell
attr title  "ID of the serving eNodeB for the UE, vector"
attr unit  ""
vector 263  CAIN.ueD2DTx[1].nic.phy  servingCell:vector  ETV
attr source  servingCell
attr title  "ID of the serving eNodeB for the UE, vector"
attr unit  ""
vector 295  CAIN.ueD2DTx[2].nic.phy  servingCell:vector  ETV
attr source  servingCell
attr title  "ID of the serving eNodeB for the UE, vector"
attr unit  ""
vector 327  CAIN.ueD2DTx[3].nic.phy  servingCell:vector  ETV
attr source  servingCell
attr title  "ID of the serving eNodeB for the UE, vector"
attr unit  ""
vector 359  CAIN.ueD2DTx[4].nic.phy  servingCell:vector  ETV
attr source  servingCell
attr title  "ID of the serving eNodeB for the UE, vector"
attr unit  ""
vector 391  CAIN.ueD2DTx[5].nic.phy  servingCell:vector  ETV
attr source  servingCell
attr title  "ID of the serving eNodeB for the UE, vector"
attr unit  ""
vector 423  CAIN.ueD2DTx[6].nic.phy  servingCell:vector  ETV
attr source  servingCell
attr title  "ID of the serving eNodeB for the UE, vector"
attr unit  ""
vector 455  CAIN.ueD2DTx[7].nic.phy  servingCell:vector  ETV
attr source  servingCell
attr title  "ID of the serving eNodeB for the UE, vector"
attr unit  ""
vector 487  CAIN.ueD2DTx[8].nic.phy  servingCell:vector  ETV
attr source  servingCell
attr title  "ID of the serving eNodeB for the UE, vector"
attr unit  ""
vector 519  CAIN.ueD2DTx[9].nic.phy  servingCell:vector  ETV
attr source  servingCell
attr title  "ID of the serving eNodeB for the UE, vector"
attr unit  ""
vector 551  CAIN.ueD2DTx[10].nic.phy  servingCell:vector  ETV
attr source  servingCell
attr title  "ID of the serving eNodeB for the UE, vector"
attr unit  ""
vector 583  CAIN.ueD2DTx[11].nic.phy  servingCell:vector  ETV
attr source  servingCell
attr title  "ID of the serving eNodeB for the UE, vector"
attr unit  ""
vector 615  CAIN.ueD2DTx[12].nic.phy  servingCell:vector  ETV
attr source  servingCell
attr title  "ID of the serving eNodeB for the UE, vector"
attr unit  ""
vector 647  CAIN.ueD2DTx[13].nic.phy  servingCell:vector  ETV
attr source  servingCell
attr title  "ID of the serving eNodeB for the UE, vector"
attr unit  ""
vector 679  CAIN.ueD2DTx[14].nic.phy  servingCell:vector  ETV
attr source  servingCell
attr title  "ID of the serving eNodeB for the UE, vector"
attr unit  ""
vector 711  CAIN.ueD2DTx[15].nic.phy  servingCell:vector  ETV
attr source  servingCell
attr title  "ID of the serving eNodeB for the UE, vector"
attr unit  ""
vector 743  CAIN.ueD2DTx[16].nic.phy  servingCell:vector  ETV
attr source  servingCell
attr title  "ID of the serving eNodeB for the UE, vector"
attr unit  ""
vector 775  CAIN.ueD2DTx[17].nic.phy  servingCell:vector  ETV
attr source  servingCell
attr title  "ID of the serving eNodeB for the UE, vector"
attr unit  ""
vector 807  CAIN.ueD2DTx[18].nic.phy  servingCell:vector  ETV
attr source  servingCell
attr title  "ID of the serving eNodeB for the UE, vector"
attr unit  ""
vector 839  CAIN.ueD2DTx[19].nic.phy  servingCell:vector  ETV
attr source  servingCell
attr title  "ID of the serving eNodeB for the UE, vector"
attr unit  ""
vector 863  CAIN.eNodeB.sctp  "Throughput of Association 3"  ETV
vector 885  CAIN.eNodeB1.sctp  "Throughput of Association 4"  ETV
vector 907  CAIN.eNodeB.sctp  "Throughput of Association 1"  ETV
vector 927  CAIN.eNodeB.sctp  "Fast Recovery State 1:10.0.5.2"  ETV
vector 956  CAIN.eNodeB1.sctp  "Throughput of Association 2"  ETV
vector 976  CAIN.eNodeB1.sctp  "Fast Recovery State 2:10.0.5.1"  ETV
vector 128  CAIN.eNodeB.x2ppp[0].queue  rcvdPk:vector(packetBytes)  ETV
attr interpolationmode  none
attr title  "received packets, vector(packetBytes)"
vector 130  CAIN.eNodeB.x2ppp[0].queue  queueingTime:vector  ETV
attr interpolationmode  none
attr title  "queueing time, vector"
vector 186  CAIN.eNodeB1.x2ppp[0].queue  rcvdPk:vector(packetBytes)  ETV
attr interpolationmode  none
attr title  "received packets, vector(packetBytes)"
vector 188  CAIN.eNodeB1.x2ppp[0].queue  queueingTime:vector  ETV
attr interpolationmode  none
attr title  "queueing time, vector"
vector 137  CAIN.eNodeB.x2ppp[0].ppp  rcvdPkFromHL:vector(packetBytes)  ETV
attr interpolationmode  none
attr source  packetReceivedFromUpper
attr title  "packets received from higher layer, vector(packetBytes)"
vector 133  CAIN.eNodeB.x2ppp[0].ppp  txPk:vector(packetBytes)  ETV
attr interpolationmode  none
attr source  packetSentToLower
attr title  "packets transmitted, vector(packetBytes)"
vector 195  CAIN.eNodeB1.x2ppp[0].ppp  rcvdPkFromHL:vector(packetBytes)  ETV
attr interpolationmode  none
attr source  packetReceivedFromUpper
attr title  "packets received from higher layer, vector(packetBytes)"
vector 191  CAIN.eNodeB1.x2ppp[0].ppp  txPk:vector(packetBytes)  ETV
attr interpolationmode  none
attr source  packetSentToLower
attr title  "packets transmitted, vector(packetBytes)"
vector 192  CAIN.eNodeB1.x2ppp[0].ppp  rxPkOk:vector(packetBytes)  ETV
attr interpolationmode  none
attr source  rxPkOk
attr title  "packets received OK, vector(packetBytes)"
vector 196  CAIN.eNodeB1.x2ppp[0].ppp  passedUpPk:vector(packetBytes)  ETV
attr interpolationmode  none
attr source  packetSentToUpper
attr title  "packets passed to higher layer, vector(packetBytes)"
vector 134  CAIN.eNodeB.x2ppp[0].ppp  rxPkOk:vector(packetBytes)  ETV
attr interpolationmode  none
attr source  rxPkOk
attr title  "packets received OK, vector(packetBytes)"
vector 138  CAIN.eNodeB.x2ppp[0].ppp  passedUpPk:vector(packetBytes)  ETV
attr interpolationmode  none
attr source  packetSentToUpper
attr title  "packets passed to higher layer, vector(packetBytes)"
vector 1005  CAIN.eNodeB1.sctp  "Throughput of Association 4"  ETV
vector 882  CAIN.eNodeB1.sctp  "Peer Rwnd 4"  ETV
vector 1025  CAIN.eNodeB1.sctp  "Fast Recovery State 5:10.0.4.1"  ETV
vector 1052  CAIN.eNodeB1.sctp  "Fast Recovery State 5:10.0.2.2"  ETV
vector 1079  CAIN.eNodeB1.sctp  "Fast Recovery State 5:10.0.5.1"  ETV
vector 1108  CAIN.eNodeB.sctp  "Throughput of Association 3"  ETV
vector 860  CAIN.eNodeB.sctp  "Peer Rwnd 3"  ETV
vector 1128  CAIN.eNodeB.sctp  "Fast Recovery State 6:10.0.4.2"  ETV
vector 1155  CAIN.eNodeB.sctp  "Fast Recovery State 6:10.0.3.2"  ETV
vector 1182  CAIN.eNodeB.sctp  "Fast Recovery State 6:10.0.5.2"  ETV
vector 904  CAIN.eNodeB.sctp  "Peer Rwnd 1"  ETV
vector 1209  CAIN.eNodeB.sctp  "Fast Recovery State 1:10.0.4.2"  ETV
vector 1236  CAIN.eNodeB.sctp  "Fast Recovery State 1:10.0.3.2"  ETV
vector 953  CAIN.eNodeB1.sctp  "Peer Rwnd 2"  ETV
vector 1263  CAIN.eNodeB1.sctp  "Fast Recovery State 2:10.0.4.1"  ETV
vector 1290  CAIN.eNodeB1.sctp  "Fast Recovery State 2:10.0.2.2"  ETV
vector 1035  CAIN.eNodeB1.sctp  "Slow Start Threshold 5:10.0.2.2"  ETV
vector 1036  CAIN.eNodeB1.sctp  "Congestion Window 5:10.0.2.2"  ETV
vector 1037  CAIN.eNodeB1.sctp  "Bandwidth 5:10.0.2.2"  ETV
vector 1040  CAIN.eNodeB1.sctp  "HB Sent 5:10.0.2.2"  ETV
vector 1033  CAIN.eNodeB1.sctp  "RTO 5:10.0.2.2"  ETV
vector 1008  CAIN.eNodeB1.sctp  "Slow Start Threshold 5:10.0.4.1"  ETV
vector 1009  CAIN.eNodeB1.sctp  "Congestion Window 5:10.0.4.1"  ETV
vector 1010  CAIN.eNodeB1.sctp  "Bandwidth 5:10.0.4.1"  ETV
vector 1013  CAIN.eNodeB1.sctp  "HB Sent 5:10.0.4.1"  ETV
vector 1006  CAIN.eNodeB1.sctp  "RTO 5:10.0.4.1"  ETV
vector 1062  CAIN.eNodeB1.sctp  "Slow Start Threshold 5:10.0.5.1"  ETV
vector 1063  CAIN.eNodeB1.sctp  "Congestion Window 5:10.0.5.1"  ETV
vector 1064  CAIN.eNodeB1.sctp  "Bandwidth 5:10.0.5.1"  ETV
vector 1060  CAIN.eNodeB1.sctp  "RTO 5:10.0.5.1"  ETV
vector 1138  CAIN.eNodeB.sctp  "Slow Start Threshold 6:10.0.3.2"  ETV
vector 1139  CAIN.eNodeB.sctp  "Congestion Window 6:10.0.3.2"  ETV
vector 1140  CAIN.eNodeB.sctp  "Bandwidth 6:10.0.3.2"  ETV
vector 1143  CAIN.eNodeB.sctp  "HB Sent 6:10.0.3.2"  ETV
vector 1136  CAIN.eNodeB.sctp  "RTO 6:10.0.3.2"  ETV
vector 1111  CAIN.eNodeB.sctp  "Slow Start Threshold 6:10.0.4.2"  ETV
vector 1112  CAIN.eNodeB.sctp  "Congestion Window 6:10.0.4.2"  ETV
vector 1113  CAIN.eNodeB.sctp  "Bandwidth 6:10.0.4.2"  ETV
vector 1116  CAIN.eNodeB.sctp  "HB Sent 6:10.0.4.2"  ETV
vector 1109  CAIN.eNodeB.sctp  "RTO 6:10.0.4.2"  ETV
vector 1165  CAIN.eNodeB.sctp  "Slow Start Threshold 6:10.0.5.2"  ETV
vector 1166  CAIN.eNodeB.sctp  "Congestion Window 6:10.0.5.2"  ETV
vector 1167  CAIN.eNodeB.sctp  "Bandwidth 6:10.0.5.2"  ETV
vector 1163  CAIN.eNodeB.sctp  "RTO 6:10.0.5.2"  ETV
vector 916  CAIN.eNodeB.sctp  "HB ACK Sent 1:10.0.5.2"  ETV
vector 917  CAIN.eNodeB.sctp  "HB Received 1:10.0.5.2"  ETV
vector 965  CAIN.eNodeB1.sctp  "HB ACK Sent 2:10.0.5.1"  ETV
vector 966  CAIN.eNodeB1.sctp  "HB Received 2:10.0.5.1"  ETV
vector 1219  CAIN.eNodeB.sctp  "Slow Start Threshold 1:10.0.3.2"  ETV
vector 1220  CAIN.eNodeB.sctp  "Congestion Window 1:10.0.3.2"  ETV
vector 1221  CAIN.eNodeB.sctp  "Bandwidth 1:10.0.3.2"  ETV
vector 1224  CAIN.eNodeB.sctp  "HB Sent 1:10.0.3.2"  ETV
vector 1217  CAIN.eNodeB.sctp  "RTO 1:10.0.3.2"  ETV
vector 1192  CAIN.eNodeB.sctp  "Slow Start Threshold 1:10.0.4.2"  ETV
vector 1193  CAIN.eNodeB.sctp  "Congestion Window 1:10.0.4.2"  ETV
vector 1194  CAIN.eNodeB.sctp  "Bandwidth 1:10.0.4.2"  ETV
vector 1197  CAIN.eNodeB.sctp  "HB Sent 1:10.0.4.2"  ETV
vector 1190  CAIN.eNodeB.sctp  "RTO 1:10.0.4.2"  ETV
vector 910  CAIN.eNodeB.sctp  "Slow Start Threshold 1:10.0.5.2"  ETV
vector 911  CAIN.eNodeB.sctp  "Congestion Window 1:10.0.5.2"  ETV
vector 912  CAIN.eNodeB.sctp  "Bandwidth 1:10.0.5.2"  ETV
vector 908  CAIN.eNodeB.sctp  "RTO 1:10.0.5.2"  ETV
vector 1273  CAIN.eNodeB1.sctp  "Slow Start Threshold 2:10.0.2.2"  ETV
vector 1274  CAIN.eNodeB1.sctp  "Congestion Window 2:10.0.2.2"  ETV
vector 1275  CAIN.eNodeB1.sctp  "Bandwidth 2:10.0.2.2"  ETV
vector 1278  CAIN.eNodeB1.sctp  "HB Sent 2:10.0.2.2"  ETV
vector 1271  CAIN.eNodeB1.sctp  "RTO 2:10.0.2.2"  ETV
vector 1246  CAIN.eNodeB1.sctp  "Slow Start Threshold 2:10.0.4.1"  ETV
vector 1247  CAIN.eNodeB1.sctp  "Congestion Window 2:10.0.4.1"  ETV
vector 1248  CAIN.eNodeB1.sctp  "Bandwidth 2:10.0.4.1"  ETV
vector 1251  CAIN.eNodeB1.sctp  "HB Sent 2:10.0.4.1"  ETV
vector 1244  CAIN.eNodeB1.sctp  "RTO 2:10.0.4.1"  ETV
vector 959  CAIN.eNodeB1.sctp  "Slow Start Threshold 2:10.0.5.1"  ETV
vector 960  CAIN.eNodeB1.sctp  "Congestion Window 2:10.0.5.1"  ETV
vector 961  CAIN.eNodeB1.sctp  "Bandwidth 2:10.0.5.1"  ETV
vector 957  CAIN.eNodeB1.sctp  "RTO 2:10.0.5.1"  ETV
vector 1173  CAIN.eNodeB.sctp  "HB ACK Received 6:10.0.5.2"  ETV
vector 1164  CAIN.eNodeB.sctp  "RTT 6:10.0.5.2"  ETV
vector 1070  CAIN.eNodeB1.sctp  "HB ACK Received 5:10.0.5.1"  ETV
vector 1061  CAIN.eNodeB1.sctp  "RTT 5:10.0.5.1"  ETV
vector 1171  CAIN.eNodeB.sctp  "HB ACK Sent 6:10.0.5.2"  ETV
vector 1172  CAIN.eNodeB.sctp  "HB Received 6:10.0.5.2"  ETV
vector 1068  CAIN.eNodeB1.sctp  "HB ACK Sent 5:10.0.5.1"  ETV
vector 1069  CAIN.eNodeB1.sctp  "HB Received 5:10.0.5.1"  ETV
vector 967  CAIN.eNodeB1.sctp  "HB ACK Received 2:10.0.5.1"  ETV
vector 958  CAIN.eNodeB1.sctp  "RTT 2:10.0.5.1"  ETV
vector 918  CAIN.eNodeB.sctp  "HB ACK Received 1:10.0.5.2"  ETV
vector 909  CAIN.eNodeB.sctp  "RTT 1:10.0.5.2"  ETV
vector 96  CAIN.eNodeB.nic.mac  receivedPacketFromLowerLayer:vector(packetBytes)  ETV
attr interpolationmode  none
attr source  receivedPacketFromLowerLayer
vector 1305  CAIN.eNodeB.sctp  "SendQueue of Association 6"  ETV
vector 1168  CAIN.eNodeB.sctp  "TSN Sent 6:10.0.5.2"  ETV
vector 1175  CAIN.eNodeB.sctp  "Outstanding Bytes 6:10.0.5.2"  ETV
vector 848  CAIN.eNodeB.sctp  "Outstanding Bytes 3:Total"  ETV
vector 1174  CAIN.eNodeB.sctp  "Queued Sent Bytes 6:10.0.5.2"  ETV
vector 847  CAIN.eNodeB.sctp  "Queued Sent Bytes 3:Total"  ETV
vector 963  CAIN.eNodeB1.sctp  "TSN Received 2:10.0.5.1"  ETV
vector 939  CAIN.eNodeB1.sctp  "Queued Received Bytes 2:Total"  ETV
vector 935  CAIN.eNodeB1.sctp  "Advertised Receiver Window 2"  ETV
vector 944  CAIN.eNodeB1.sctp  "Number of Total Gap Blocks Stored 2"  ETV
vector 945  CAIN.eNodeB1.sctp  "Number of Revokable Gap Blocks Stored 2"  ETV
vector 946  CAIN.eNodeB1.sctp  "Number of Non-Revokable Gap Blocks Stored 2"  ETV
vector 947  CAIN.eNodeB1.sctp  "Number of Duplicate TSNs Stored 2"  ETV
vector 951  CAIN.eNodeB1.sctp  "Length of SACK Sent 2"  ETV
vector 948  CAIN.eNodeB1.sctp  "Number of Revokable Gap Blocks Sent 2"  ETV
vector 949  CAIN.eNodeB1.sctp  "Number of Non-Revokable Gap Blocks Sent 2"  ETV
vector 950  CAIN.eNodeB1.sctp  "Number of Duplicate TSNs Sent 2"  ETV
vector 955  CAIN.eNodeB1.sctp  "End to End Delay of Association 2"  ETV
vector 199  CAIN.eNodeB1.x2App[0].client  rcvdPk:vector(packetBytes)  ETV
attr interpolationmode  none
attr source  rcvdPk
attr title  "packets received, vector(packetBytes)"
vector 1304  CAIN.eNodeB.sctp  "Number of Gap Blocks in Last SACK of Association 6"  ETV
vector 849  CAIN.eNodeB.sctp  "Number of Revokable Gap Blocks in SACK 3"  ETV
vector 850  CAIN.eNodeB.sctp  "Number of Non-Revokable Gap Blocks in SACK 3"  ETV
vector 1185  CAIN.eNodeB.sctp  "TSN Acked CumAck 6:10.0.5.2"  ETV
vector 1151  CAIN.eNodeB.sctp  "Number of Gap Acked Chunks in Last SACK 6:10.0.3.2"  ETV
vector 1152  CAIN.eNodeB.sctp  "Number of Non-Revokable Gap Acked Chunks in Last SACK 6:10.0.3.2"  ETV
vector 1153  CAIN.eNodeB.sctp  "Number of Gap Missed Chunks in Last SACK 6:10.0.3.2"  ETV
vector 1124  CAIN.eNodeB.sctp  "Number of Gap Acked Chunks in Last SACK 6:10.0.4.2"  ETV
vector 1125  CAIN.eNodeB.sctp  "Number of Non-Revokable Gap Acked Chunks in Last SACK 6:10.0.4.2"  ETV
vector 1126  CAIN.eNodeB.sctp  "Number of Gap Missed Chunks in Last SACK 6:10.0.4.2"  ETV
vector 1178  CAIN.eNodeB.sctp  "Number of Gap Acked Chunks in Last SACK 6:10.0.5.2"  ETV
vector 1179  CAIN.eNodeB.sctp  "Number of Non-Revokable Gap Acked Chunks in Last SACK 6:10.0.5.2"  ETV
vector 1180  CAIN.eNodeB.sctp  "Number of Gap Missed Chunks in Last SACK 6:10.0.5.2"  ETV
vector 859  CAIN.eNodeB.sctp  "Arwnd in Last SACK 3"  ETV
vector 1187  CAIN.eNodeB.sctp  "TSN PseudoCumAck 6:10.0.5.2"  ETV
vector 1188  CAIN.eNodeB.sctp  "TSN RTXPseudoCumAck 6:10.0.5.2"  ETV
vector 1181  CAIN.eNodeB.sctp  "Partial Bytes Acked 6:10.0.5.2"  ETV
vector 1333  CAIN.ueD2DTx[13].tcp  tcpRcvQueueBytes  ETV
vector 1320  CAIN.ueD2DTx[13].tcp  "advertised window"  ETV
vector 1319  CAIN.ueD2DTx[13].tcp  "receive window"  ETV
vector 1322  CAIN.ueD2DTx[13].tcp  "sent ack"  ETV
vector 621  CAIN.ueD2DTx[13].nic.pdcpRrc  receivedPacketFromUpperLayer:vector(packetBytes)  ETV
attr interpolationmode  none
attr source  receivedPacketFromUpperLayer
vector 624  CAIN.ueD2DTx[13].nic.pdcpRrc  sentPacketToLowerLayer:vector(packetBytes)  ETV
attr interpolationmode  none
attr source  sentPacketToLowerLayer
vector 625  CAIN.ueD2DTx[13].nic.mac  receivedPacketFromUpperLayer:vector(packetBytes)  ETV
attr interpolationmode  none
attr source  receivedPacketFromUpperLayer
vector 635  CAIN.ueD2DTx[13].nic.mac  CainHopMessageSent:vector  ETV
attr interpolationmode  none
attr title  "# of Sent CAIN hop message, vector"
vector 628  CAIN.ueD2DTx[13].nic.mac  sentPacketToLowerLayer:vector(packetBytes)  ETV
attr interpolationmode  none
attr source  sentPacketToLowerLayer
vector 722  CAIN.ueD2DTx[16].nic.mac  receivedPacketFromLowerLayer:vector(packetBytes)  ETV
attr interpolationmode  none
attr source  receivedPacketFromLowerLayer
vector 724  CAIN.ueD2DTx[16].nic.mac  sentPacketToLowerLayer:vector(packetBytes)  ETV
attr interpolationmode  none
attr source  sentPacketToLowerLayer
vector 434  CAIN.ueD2DTx[7].nic.mac  receivedPacketFromLowerLayer:vector(packetBytes)  ETV
attr interpolationmode  none
attr source  receivedPacketFromLowerLayer
vector 436  CAIN.ueD2DTx[7].nic.mac  sentPacketToLowerLayer:vector(packetBytes)  ETV
attr interpolationmode  none
attr source  sentPacketToLowerLayer
vector 111  CAIN.eNodeB.nic.mac  racpkt:vector  ETV
attr interpolationmode  none
attr title  "eNB received racpkt message, vector"
vector 112  CAIN.eNodeB.nic.mac  racDistanceSignal:vector  ETV
attr interpolationmode  none
attr title  "Rac distance to enb, vector"
vector 113  CAIN.eNodeB.nic.mac  racServedDevsSignal:vector  ETV
attr interpolationmode  none
attr title  "# of devices served on rac arriavall, vector"
vector 106  CAIN.eNodeB.nic.mac  DistanceSignal:vector  ETV
attr interpolationmode  none
attr title  "Distance to enb, vector"
vector 101  CAIN.eNodeB.nic.mac  CainHopMessage:vector  ETV
attr interpolationmode  none
attr title  "eNB received CAIN hop message, vector"
vector 98  CAIN.eNodeB.nic.mac  sentPacketToLowerLayer:vector(packetBytes)  ETV
attr interpolationmode  none
attr source  sentPacketToLowerLayer
vector 441  CAIN.ueD2DTx[7].nic.mac  DropedHopMessage:vector  ETV
attr interpolationmode  none
attr title  "Droped Hop CAIN message due to RB not available, vector"
vector 1357  CAIN.ueD2DTx[18].tcp  tcpRcvQueueBytes  ETV
vector 1344  CAIN.ueD2DTx[18].tcp  "advertised window"  ETV
vector 1343  CAIN.ueD2DTx[18].tcp  "receive window"  ETV
vector 1346  CAIN.ueD2DTx[18].tcp  "sent ack"  ETV
vector 781  CAIN.ueD2DTx[18].nic.pdcpRrc  receivedPacketFromUpperLayer:vector(packetBytes)  ETV
attr interpolationmode  none
attr source  receivedPacketFromUpperLayer
vector 784  CAIN.ueD2DTx[18].nic.pdcpRrc  sentPacketToLowerLayer:vector(packetBytes)  ETV
attr interpolationmode  none
attr source  sentPacketToLowerLayer
vector 785  CAIN.ueD2DTx[18].nic.mac  receivedPacketFromUpperLayer:vector(packetBytes)  ETV
attr interpolationmode  none
attr source  receivedPacketFromUpperLayer
vector 795  CAIN.ueD2DTx[18].nic.mac  CainHopMessageSent:vector  ETV
attr interpolationmode  none
attr title  "# of Sent CAIN hop message, vector"
vector 788  CAIN.ueD2DTx[18].nic.mac  sentPacketToLowerLayer:vector(packetBytes)  ETV
attr interpolationmode  none
attr source  sentPacketToLowerLayer
vector 690  CAIN.ueD2DTx[15].nic.mac  receivedPacketFromLowerLayer:vector(packetBytes)  ETV
attr interpolationmode  none
attr source  receivedPacketFromLowerLayer
vector 692  CAIN.ueD2DTx[15].nic.mac  sentPacketToLowerLayer:vector(packetBytes)  ETV
attr interpolationmode  none
attr source  sentPacketToLowerLayer
vector 338  CAIN.ueD2DTx[4].nic.mac  receivedPacketFromLowerLayer:vector(packetBytes)  ETV
attr interpolationmode  none
attr source  receivedPacketFromLowerLayer
vector 340  CAIN.ueD2DTx[4].nic.mac  sentPacketToLowerLayer:vector(packetBytes)  ETV
attr interpolationmode  none
attr source  sentPacketToLowerLayer
vector 345  CAIN.ueD2DTx[4].nic.mac  DropedHopMessage:vector  ETV
attr interpolationmode  none
attr title  "Droped Hop CAIN message due to RB not available, vector"
vector 1381  CAIN.ueD2DTx[6].tcp  tcpRcvQueueBytes  ETV
vector 1368  CAIN.ueD2DTx[6].tcp  "advertised window"  ETV
vector 1367  CAIN.ueD2DTx[6].tcp  "receive window"  ETV
vector 1370  CAIN.ueD2DTx[6].tcp  "sent ack"  ETV
vector 397  CAIN.ueD2DTx[6].nic.pdcpRrc  receivedPacketFromUpperLayer:vector(packetBytes)  ETV
attr interpolationmode  none
attr source  receivedPacketFromUpperLayer
vector 400  CAIN.ueD2DTx[6].nic.pdcpRrc  sentPacketToLowerLayer:vector(packetBytes)  ETV
attr interpolationmode  none
attr source  sentPacketToLowerLayer
vector 401  CAIN.ueD2DTx[6].nic.mac  receivedPacketFromUpperLayer:vector(packetBytes)  ETV
attr interpolationmode  none
attr source  receivedPacketFromUpperLayer
vector 411  CAIN.ueD2DTx[6].nic.mac  CainHopMessageSent:vector  ETV
attr interpolationmode  none
attr title  "# of Sent CAIN hop message, vector"
vector 404  CAIN.ueD2DTx[6].nic.mac  sentPacketToLowerLayer:vector(packetBytes)  ETV
attr interpolationmode  none
attr source  sentPacketToLowerLayer
vector 1405  CAIN.ueD2DTx[14].tcp  tcpRcvQueueBytes  ETV
vector 1392  CAIN.ueD2DTx[14].tcp  "advertised window"  ETV
vector 1391  CAIN.ueD2DTx[14].tcp  "receive window"  ETV
vector 1394  CAIN.ueD2DTx[14].tcp  "sent ack"  ETV
vector 653  CAIN.ueD2DTx[14].nic.pdcpRrc  receivedPacketFromUpperLayer:vector(packetBytes)  ETV
attr interpolationmode  none
attr source  receivedPacketFromUpperLayer
vector 656  CAIN.ueD2DTx[14].nic.pdcpRrc  sentPacketToLowerLayer:vector(packetBytes)  ETV
attr interpolationmode  none
attr source  sentPacketToLowerLayer
vector 657  CAIN.ueD2DTx[14].nic.mac  receivedPacketFromUpperLayer:vector(packetBytes)  ETV
attr interpolationmode  none
attr source  receivedPacketFromUpperLayer
vector 667  CAIN.ueD2DTx[14].nic.mac  CainHopMessageSent:vector  ETV
attr interpolationmode  none
attr title  "# of Sent CAIN hop message, vector"
vector 660  CAIN.ueD2DTx[14].nic.mac  sentPacketToLowerLayer:vector(packetBytes)  ETV
attr interpolationmode  none
attr source  sentPacketToLowerLayer
vector 1429  CAIN.ueD2DTx[12].tcp  tcpRcvQueueBytes  ETV
vector 1416  CAIN.ueD2DTx[12].tcp  "advertised window"  ETV
vector 1415  CAIN.ueD2DTx[12].tcp  "receive window"  ETV
vector 1418  CAIN.ueD2DTx[12].tcp  "sent ack"  ETV
vector 589  CAIN.ueD2DTx[12].nic.pdcpRrc  receivedPacketFromUpperLayer:vector(packetBytes)  ETV
attr interpolationmode  none
attr source  receivedPacketFromUpperLayer
vector 592  CAIN.ueD2DTx[12].nic.pdcpRrc  sentPacketToLowerLayer:vector(packetBytes)  ETV
attr interpolationmode  none
attr source  sentPacketToLowerLayer
vector 593  CAIN.ueD2DTx[12].nic.mac  receivedPacketFromUpperLayer:vector(packetBytes)  ETV
attr interpolationmode  none
attr source  receivedPacketFromUpperLayer
vector 603  CAIN.ueD2DTx[12].nic.mac  CainHopMessageSent:vector  ETV
attr interpolationmode  none
attr title  "# of Sent CAIN hop message, vector"
vector 596  CAIN.ueD2DTx[12].nic.mac  sentPacketToLowerLayer:vector(packetBytes)  ETV
attr interpolationmode  none
attr source  sentPacketToLowerLayer
vector 498  CAIN.ueD2DTx[9].nic.mac  receivedPacketFromLowerLayer:vector(packetBytes)  ETV
attr interpolationmode  none
attr source  receivedPacketFromLowerLayer
vector 500  CAIN.ueD2DTx[9].nic.mac  sentPacketToLowerLayer:vector(packetBytes)  ETV
attr interpolationmode  none
attr source  sentPacketToLowerLayer
vector 505  CAIN.ueD2DTx[9].nic.mac  DropedHopMessage:vector  ETV
attr interpolationmode  none
attr title  "Droped Hop CAIN message due to RB not available, vector"
vector 1453  CAIN.ueD2DTx[2].tcp  tcpRcvQueueBytes  ETV
vector 1440  CAIN.ueD2DTx[2].tcp  "advertised window"  ETV
vector 1439  CAIN.ueD2DTx[2].tcp  "receive window"  ETV
vector 1442  CAIN.ueD2DTx[2].tcp  "sent ack"  ETV
vector 269  CAIN.ueD2DTx[2].nic.pdcpRrc  receivedPacketFromUpperLayer:vector(packetBytes)  ETV
attr interpolationmode  none
attr source  receivedPacketFromUpperLayer
vector 272  CAIN.ueD2DTx[2].nic.pdcpRrc  sentPacketToLowerLayer:vector(packetBytes)  ETV
attr interpolationmode  none
attr source  sentPacketToLowerLayer
vector 273  CAIN.ueD2DTx[2].nic.mac  receivedPacketFromUpperLayer:vector(packetBytes)  ETV
attr interpolationmode  none
attr source  receivedPacketFromUpperLayer
vector 283  CAIN.ueD2DTx[2].nic.mac  CainHopMessageSent:vector  ETV
attr interpolationmode  none
attr title  "# of Sent CAIN hop message, vector"
vector 276  CAIN.ueD2DTx[2].nic.mac  sentPacketToLowerLayer:vector(packetBytes)  ETV
attr interpolationmode  none
attr source  sentPacketToLowerLayer
vector 1477  CAIN.ueD2DTx[15].tcp  tcpRcvQueueBytes  ETV
vector 1464  CAIN.ueD2DTx[15].tcp  "advertised window"  ETV
vector 1463  CAIN.ueD2DTx[15].tcp  "receive window"  ETV
vector 1466  CAIN.ueD2DTx[15].tcp  "sent ack"  ETV
vector 685  CAIN.ueD2DTx[15].nic.pdcpRrc  receivedPacketFromUpperLayer:vector(packetBytes)  ETV
attr interpolationmode  none
attr source  receivedPacketFromUpperLayer
vector 688  CAIN.ueD2DTx[15].nic.pdcpRrc  sentPacketToLowerLayer:vector(packetBytes)  ETV
attr interpolationmode  none
attr source  sentPacketToLowerLayer
vector 689  CAIN.ueD2DTx[15].nic.mac  receivedPacketFromUpperLayer:vector(packetBytes)  ETV
attr interpolationmode  none
attr source  receivedPacketFromUpperLayer
vector 698  CAIN.ueD2DTx[15].nic.mac  CainMessageSent:vector  ETV
attr interpolationmode  none
attr title  "# of Sent CAIN message, vector"
vector 818  CAIN.ueD2DTx[19].nic.mac  receivedPacketFromLowerLayer:vector(packetBytes)  ETV
attr interpolationmode  none
attr source  receivedPacketFromLowerLayer
vector 820  CAIN.ueD2DTx[19].nic.mac  sentPacketToLowerLayer:vector(packetBytes)  ETV
attr interpolationmode  none
attr source  sentPacketToLowerLayer
vector 1501  CAIN.ueD2DTx[3].tcp  tcpRcvQueueBytes  ETV
vector 1488  CAIN.ueD2DTx[3].tcp  "advertised window"  ETV
vector 1487  CAIN.ueD2DTx[3].tcp  "receive window"  ETV
vector 1490  CAIN.ueD2DTx[3].tcp  "sent ack"  ETV
vector 301  CAIN.ueD2DTx[3].nic.pdcpRrc  receivedPacketFromUpperLayer:vector(packetBytes)  ETV
attr interpolationmode  none
attr source  receivedPacketFromUpperLayer
vector 304  CAIN.ueD2DTx[3].nic.pdcpRrc  sentPacketToLowerLayer:vector(packetBytes)  ETV
attr interpolationmode  none
attr source  sentPacketToLowerLayer
vector 305  CAIN.ueD2DTx[3].nic.mac  receivedPacketFromUpperLayer:vector(packetBytes)  ETV
attr interpolationmode  none
attr source  receivedPacketFromUpperLayer
vector 315  CAIN.ueD2DTx[3].nic.mac  CainHopMessageSent:vector  ETV
attr interpolationmode  none
attr title  "# of Sent CAIN hop message, vector"
vector 308  CAIN.ueD2DTx[3].nic.mac  sentPacketToLowerLayer:vector(packetBytes)  ETV
attr interpolationmode  none
attr source  sentPacketToLowerLayer
vector 100  CAIN.eNodeB.nic.mac  CainMessage:vector  ETV
attr interpolationmode  none
attr title  "eNB received CAIN message, vector"
vector 824  CAIN.ueD2DTx[19].nic.mac  DropedCainMessage:vector  ETV
attr interpolationmode  none
attr title  "Droped CAIN message due to RB not available, vector"
vector 1525  CAIN.ueD2DTx[8].tcp  tcpRcvQueueBytes  ETV
vector 1512  CAIN.ueD2DTx[8].tcp  "advertised window"  ETV
vector 1511  CAIN.ueD2DTx[8].tcp  "receive window"  ETV
vector 1514  CAIN.ueD2DTx[8].tcp  "sent ack"  ETV
vector 461  CAIN.ueD2DTx[8].nic.pdcpRrc  receivedPacketFromUpperLayer:vector(packetBytes)  ETV
attr interpolationmode  none
attr source  receivedPacketFromUpperLayer
vector 464  CAIN.ueD2DTx[8].nic.pdcpRrc  sentPacketToLowerLayer:vector(packetBytes)  ETV
attr interpolationmode  none
attr source  sentPacketToLowerLayer
vector 465  CAIN.ueD2DTx[8].nic.mac  receivedPacketFromUpperLayer:vector(packetBytes)  ETV
attr interpolationmode  none
attr source  receivedPacketFromUpperLayer
vector 475  CAIN.ueD2DTx[8].nic.mac  CainHopMessageSent:vector  ETV
attr interpolationmode  none
attr title  "# of Sent CAIN hop message, vector"
vector 468  CAIN.ueD2DTx[8].nic.mac  sentPacketToLowerLayer:vector(packetBytes)  ETV
attr interpolationmode  none
attr source  sentPacketToLowerLayer
vector 825  CAIN.ueD2DTx[19].nic.mac  DropedHopMessage:vector  ETV
attr interpolationmode  none
attr title  "Droped Hop CAIN message due to RB not available, vector"
vector 1549  CAIN.ueD2DTx[11].tcp  tcpRcvQueueBytes  ETV
vector 1536  CAIN.ueD2DTx[11].tcp  "advertised window"  ETV
vector 1535  CAIN.ueD2DTx[11].tcp  "receive window"  ETV
vector 1538  CAIN.ueD2DTx[11].tcp  "sent ack"  ETV
vector 557  CAIN.ueD2DTx[11].nic.pdcpRrc  receivedPacketFromUpperLayer:vector(packetBytes)  ETV
attr interpolationmode  none
attr source  receivedPacketFromUpperLayer
vector 560  CAIN.ueD2DTx[11].nic.pdcpRrc  sentPacketToLowerLayer:vector(packetBytes)  ETV
attr interpolationmode  none
attr source  sentPacketToLowerLayer
vector 561  CAIN.ueD2DTx[11].nic.mac  receivedPacketFromUpperLayer:vector(packetBytes)  ETV
attr interpolationmode  none
attr source  receivedPacketFromUpperLayer
vector 564  CAIN.ueD2DTx[11].nic.mac  sentPacketToLowerLayer:vector(packetBytes)  ETV
attr interpolationmode  none
attr source  sentPacketToLowerLayer
vector 562  CAIN.ueD2DTx[11].nic.mac  receivedPacketFromLowerLayer:vector(packetBytes)  ETV
attr interpolationmode  none
attr source  receivedPacketFromLowerLayer
vector 563  CAIN.ueD2DTx[11].nic.mac  sentPacketToUpperLayer:vector(packetBytes)  ETV
attr interpolationmode  none
attr source  sentPacketToUpperLayer
vector 1573  CAIN.ueD2DTx[7].tcp  tcpRcvQueueBytes  ETV
vector 1560  CAIN.ueD2DTx[7].tcp  "advertised window"  ETV
vector 1559  CAIN.ueD2DTx[7].tcp  "receive window"  ETV
vector 1562  CAIN.ueD2DTx[7].tcp  "sent ack"  ETV
vector 429  CAIN.ueD2DTx[7].nic.pdcpRrc  receivedPacketFromUpperLayer:vector(packetBytes)  ETV
attr interpolationmode  none
attr source  receivedPacketFromUpperLayer
vector 432  CAIN.ueD2DTx[7].nic.pdcpRrc  sentPacketToLowerLayer:vector(packetBytes)  ETV
attr interpolationmode  none
attr source  sentPacketToLowerLayer
vector 433  CAIN.ueD2DTx[7].nic.mac  receivedPacketFromUpperLayer:vector(packetBytes)  ETV
attr interpolationmode  none
attr source  receivedPacketFromUpperLayer
vector 1301  CAIN.eNodeB1.sctp  "SendQueue of Association 5"  ETV
vector 1065  CAIN.eNodeB1.sctp  "TSN Sent 5:10.0.5.1"  ETV
vector 1072  CAIN.eNodeB1.sctp  "Outstanding Bytes 5:10.0.5.1"  ETV
vector 870  CAIN.eNodeB1.sctp  "Outstanding Bytes 4:Total"  ETV
vector 1071  CAIN.eNodeB1.sctp  "Queued Sent Bytes 5:10.0.5.1"  ETV
vector 869  CAIN.eNodeB1.sctp  "Queued Sent Bytes 4:Total"  ETV
vector 914  CAIN.eNodeB.sctp  "TSN Received 1:10.0.5.2"  ETV
vector 890  CAIN.eNodeB.sctp  "Queued Received Bytes 1:Total"  ETV
vector 886  CAIN.eNodeB.sctp  "Advertised Receiver Window 1"  ETV
vector 895  CAIN.eNodeB.sctp  "Number of Total Gap Blocks Stored 1"  ETV
vector 896  CAIN.eNodeB.sctp  "Number of Revokable Gap Blocks Stored 1"  ETV
vector 897  CAIN.eNodeB.sctp  "Number of Non-Revokable Gap Blocks Stored 1"  ETV
vector 898  CAIN.eNodeB.sctp  "Number of Duplicate TSNs Stored 1"  ETV
vector 902  CAIN.eNodeB.sctp  "Length of SACK Sent 1"  ETV
vector 899  CAIN.eNodeB.sctp  "Number of Revokable Gap Blocks Sent 1"  ETV
vector 900  CAIN.eNodeB.sctp  "Number of Non-Revokable Gap Blocks Sent 1"  ETV
vector 901  CAIN.eNodeB.sctp  "Number of Duplicate TSNs Sent 1"  ETV
vector 906  CAIN.eNodeB.sctp  "End to End Delay of Association 1"  ETV
vector 141  CAIN.eNodeB.x2App[0].client  rcvdPk:vector(packetBytes)  ETV
attr interpolationmode  none
attr source  rcvdPk
attr title  "packets received, vector(packetBytes)"
vector 1300  CAIN.eNodeB1.sctp  "Number of Gap Blocks in Last SACK of Association 5"  ETV
vector 871  CAIN.eNodeB1.sctp  "Number of Revokable Gap Blocks in SACK 4"  ETV
vector 872  CAIN.eNodeB1.sctp  "Number of Non-Revokable Gap Blocks in SACK 4"  ETV
vector 1082  CAIN.eNodeB1.sctp  "TSN Acked CumAck 5:10.0.5.1"  ETV
vector 1048  CAIN.eNodeB1.sctp  "Number of Gap Acked Chunks in Last SACK 5:10.0.2.2"  ETV
vector 1049  CAIN.eNodeB1.sctp  "Number of Non-Revokable Gap Acked Chunks in Last SACK 5:10.0.2.2"  ETV
vector 1050  CAIN.eNodeB1.sctp  "Number of Gap Missed Chunks in Last SACK 5:10.0.2.2"  ETV
vector 1021  CAIN.eNodeB1.sctp  "Number of Gap Acked Chunks in Last SACK 5:10.0.4.1"  ETV
vector 1022  CAIN.eNodeB1.sctp  "Number of Non-Revokable Gap Acked Chunks in Last SACK 5:10.0.4.1"  ETV
vector 1023  CAIN.eNodeB1.sctp  "Number of Gap Missed Chunks in Last SACK 5:10.0.4.1"  ETV
vector 1075  CAIN.eNodeB1.sctp  "Number of Gap Acked Chunks in Last SACK 5:10.0.5.1"  ETV
vector 1076  CAIN.eNodeB1.sctp  "Number of Non-Revokable Gap Acked Chunks in Last SACK 5:10.0.5.1"  ETV
vector 1077  CAIN.eNodeB1.sctp  "Number of Gap Missed Chunks in Last SACK 5:10.0.5.1"  ETV
vector 881  CAIN.eNodeB1.sctp  "Arwnd in Last SACK 4"  ETV
vector 1084  CAIN.eNodeB1.sctp  "TSN PseudoCumAck 5:10.0.5.1"  ETV
vector 1085  CAIN.eNodeB1.sctp  "TSN RTXPseudoCumAck 5:10.0.5.1"  ETV
vector 1078  CAIN.eNodeB1.sctp  "Partial Bytes Acked 5:10.0.5.1"  ETV
vector 1597  CAIN.ueD2DTx[4].tcp  tcpRcvQueueBytes  ETV
vector 1584  CAIN.ueD2DTx[4].tcp  "advertised window"  ETV
vector 1583  CAIN.ueD2DTx[4].tcp  "receive window"  ETV
vector 1586  CAIN.ueD2DTx[4].tcp  "sent ack"  ETV
vector 333  CAIN.ueD2DTx[4].nic.pdcpRrc  receivedPacketFromUpperLayer:vector(packetBytes)  ETV
attr interpolationmode  none
attr source  receivedPacketFromUpperLayer
vector 336  CAIN.ueD2DTx[4].nic.pdcpRrc  sentPacketToLowerLayer:vector(packetBytes)  ETV
attr interpolationmode  none
attr source  sentPacketToLowerLayer
vector 337  CAIN.ueD2DTx[4].nic.mac  receivedPacketFromUpperLayer:vector(packetBytes)  ETV
attr interpolationmode  none
attr source  receivedPacketFromUpperLayer
vector 154  CAIN.eNodeB1.nic.mac  receivedPacketFromLowerLayer:vector(packetBytes)  ETV
attr interpolationmode  none
attr source  receivedPacketFromLowerLayer
vector 169  CAIN.eNodeB1.nic.mac  racpkt:vector  ETV
attr interpolationmode  none
attr title  "eNB received racpkt message, vector"
vector 170  CAIN.eNodeB1.nic.mac  racDistanceSignal:vector  ETV
attr interpolationmode  none
attr title  "Rac distance to enb, vector"
vector 171  CAIN.eNodeB1.nic.mac  racServedDevsSignal:vector  ETV
attr interpolationmode  none
attr title  "# of devices served on rac arriavall, vector"
vector 156  CAIN.eNodeB1.nic.mac  sentPacketToLowerLayer:vector(packetBytes)  ETV
attr interpolationmode  none
attr source  sentPacketToLowerLayer
vector 435  CAIN.ueD2DTx[7].nic.mac  sentPacketToUpperLayer:vector(packetBytes)  ETV
attr interpolationmode  none
attr source  sentPacketToUpperLayer
vector 109  CAIN.eNodeB.nic.mac  ServedHopDevs:vector  ETV
attr interpolationmode  none
attr title  "# of devices served on hop forwarding, vector"
vector 1621  CAIN.ueD2DTx[16].tcp  tcpRcvQueueBytes  ETV
vector 1608  CAIN.ueD2DTx[16].tcp  "advertised window"  ETV
vector 1607  CAIN.ueD2DTx[16].tcp  "receive window"  ETV
vector 1610  CAIN.ueD2DTx[16].tcp  "sent ack"  ETV
vector 717  CAIN.ueD2DTx[16].nic.pdcpRrc  receivedPacketFromUpperLayer:vector(packetBytes)  ETV
attr interpolationmode  none
attr source  receivedPacketFromUpperLayer
vector 720  CAIN.ueD2DTx[16].nic.pdcpRrc  sentPacketToLowerLayer:vector(packetBytes)  ETV
attr interpolationmode  none
attr source  sentPacketToLowerLayer
vector 721  CAIN.ueD2DTx[16].nic.mac  receivedPacketFromUpperLayer:vector(packetBytes)  ETV
attr interpolationmode  none
attr source  receivedPacketFromUpperLayer
vector 730  CAIN.ueD2DTx[16].nic.mac  CainMessageSent:vector  ETV
attr interpolationmode  none
attr title  "# of Sent CAIN message, vector"
vector 1645  CAIN.ueD2DTx[1].tcp  tcpRcvQueueBytes  ETV
vector 1632  CAIN.ueD2DTx[1].tcp  "advertised window"  ETV
vector 1631  CAIN.ueD2DTx[1].tcp  "receive window"  ETV
vector 1634  CAIN.ueD2DTx[1].tcp  "sent ack"  ETV
vector 237  CAIN.ueD2DTx[1].nic.pdcpRrc  receivedPacketFromUpperLayer:vector(packetBytes)  ETV
attr interpolationmode  none
attr source  receivedPacketFromUpperLayer
vector 240  CAIN.ueD2DTx[1].nic.pdcpRrc  sentPacketToLowerLayer:vector(packetBytes)  ETV
attr interpolationmode  none
attr source  sentPacketToLowerLayer
vector 241  CAIN.ueD2DTx[1].nic.mac  receivedPacketFromUpperLayer:vector(packetBytes)  ETV
attr interpolationmode  none
attr source  receivedPacketFromUpperLayer
vector 244  CAIN.ueD2DTx[1].nic.mac  sentPacketToLowerLayer:vector(packetBytes)  ETV
attr interpolationmode  none
attr source  sentPacketToLowerLayer
vector 242  CAIN.ueD2DTx[1].nic.mac  receivedPacketFromLowerLayer:vector(packetBytes)  ETV
attr interpolationmode  none
attr source  receivedPacketFromLowerLayer
vector 108  CAIN.eNodeB.nic.mac  ServedDevs:vector  ETV
attr interpolationmode  none
attr title  "# of devices served on cain forwarding, vector"
vector 1669  CAIN.ueD2DTx[9].tcp  tcpRcvQueueBytes  ETV
vector 1656  CAIN.ueD2DTx[9].tcp  "advertised window"  ETV
vector 1655  CAIN.ueD2DTx[9].tcp  "receive window"  ETV
vector 1658  CAIN.ueD2DTx[9].tcp  "sent ack"  ETV
vector 493  CAIN.ueD2DTx[9].nic.pdcpRrc  receivedPacketFromUpperLayer:vector(packetBytes)  ETV
attr interpolationmode  none
attr source  receivedPacketFromUpperLayer
vector 496  CAIN.ueD2DTx[9].nic.pdcpRrc  sentPacketToLowerLayer:vector(packetBytes)  ETV
attr interpolationmode  none
attr source  sentPacketToLowerLayer
vector 497  CAIN.ueD2DTx[9].nic.mac  receivedPacketFromUpperLayer:vector(packetBytes)  ETV
attr interpolationmode  none
attr source  receivedPacketFromUpperLayer
vector 1693  CAIN.ueD2DTx[10].tcp  tcpRcvQueueBytes  ETV
vector 1680  CAIN.ueD2DTx[10].tcp  "advertised window"  ETV
vector 1679  CAIN.ueD2DTx[10].tcp  "receive window"  ETV
vector 1682  CAIN.ueD2DTx[10].tcp  "sent ack"  ETV
vector 525  CAIN.ueD2DTx[10].nic.pdcpRrc  receivedPacketFromUpperLayer:vector(packetBytes)  ETV
attr interpolationmode  none
attr source  receivedPacketFromUpperLayer
vector 528  CAIN.ueD2DTx[10].nic.pdcpRrc  sentPacketToLowerLayer:vector(packetBytes)  ETV
attr interpolationmode  none
attr source  sentPacketToLowerLayer
vector 529  CAIN.ueD2DTx[10].nic.mac  receivedPacketFromUpperLayer:vector(packetBytes)  ETV
attr interpolationmode  none
attr source  receivedPacketFromUpperLayer
vector 538  CAIN.ueD2DTx[10].nic.mac  CainMessageSent:vector  ETV
attr interpolationmode  none
attr title  "# of Sent CAIN message, vector"
vector 532  CAIN.ueD2DTx[10].nic.mac  sentPacketToLowerLayer:vector(packetBytes)  ETV
attr interpolationmode  none
attr source  sentPacketToLowerLayer
vector 499  CAIN.ueD2DTx[9].nic.mac  sentPacketToUpperLayer:vector(packetBytes)  ETV
attr interpolationmode  none
attr source  sentPacketToUpperLayer
vector 1717  CAIN.ueD2DTx[17].tcp  tcpRcvQueueBytes  ETV
vector 1704  CAIN.ueD2DTx[17].tcp  "advertised window"  ETV
vector 1703  CAIN.ueD2DTx[17].tcp  "receive window"  ETV
vector 1706  CAIN.ueD2DTx[17].tcp  "sent ack"  ETV
vector 749  CAIN.ueD2DTx[17].nic.pdcpRrc  receivedPacketFromUpperLayer:vector(packetBytes)  ETV
attr interpolationmode  none
attr source  receivedPacketFromUpperLayer
vector 752  CAIN.ueD2DTx[17].nic.pdcpRrc  sentPacketToLowerLayer:vector(packetBytes)  ETV
attr interpolationmode  none
attr source  sentPacketToLowerLayer
vector 753  CAIN.ueD2DTx[17].nic.mac  receivedPacketFromUpperLayer:vector(packetBytes)  ETV
attr interpolationmode  none
attr source  receivedPacketFromUpperLayer
vector 1741  CAIN.ueD2DTx[0].tcp  tcpRcvQueueBytes  ETV
vector 1728  CAIN.ueD2DTx[0].tcp  "advertised window"  ETV
vector 1727  CAIN.ueD2DTx[0].tcp  "receive window"  ETV
vector 1730  CAIN.ueD2DTx[0].tcp  "sent ack"  ETV
vector 205  CAIN.ueD2DTx[0].nic.pdcpRrc  receivedPacketFromUpperLayer:vector(packetBytes)  ETV
attr interpolationmode  none
attr source  receivedPacketFromUpperLayer
vector 208  CAIN.ueD2DTx[0].nic.pdcpRrc  sentPacketToLowerLayer:vector(packetBytes)  ETV
attr interpolationmode  none
attr source  sentPacketToLowerLayer
vector 209  CAIN.ueD2DTx[0].nic.mac  receivedPacketFromUpperLayer:vector(packetBytes)  ETV
attr interpolationmode  none
attr source  receivedPacketFromUpperLayer
vector 218  CAIN.ueD2DTx[0].nic.mac  CainMessageSent:vector  ETV
attr interpolationmode  none
attr title  "# of Sent CAIN message, vector"
vector 212  CAIN.ueD2DTx[0].nic.mac  sentPacketToLowerLayer:vector(packetBytes)  ETV
attr interpolationmode  none
attr source  sentPacketToLowerLayer
vector 756  CAIN.ueD2DTx[17].nic.mac  sentPacketToLowerLayer:vector(packetBytes)  ETV
attr interpolationmode  none
attr source  sentPacketToLowerLayer
vector 754  CAIN.ueD2DTx[17].nic.mac  receivedPacketFromLowerLayer:vector(packetBytes)  ETV
attr interpolationmode  none
attr source  receivedPacketFromLowerLayer
vector 1765  CAIN.ueD2DTx[19].tcp  tcpRcvQueueBytes  ETV
vector 1752  CAIN.ueD2DTx[19].tcp  "advertised window"  ETV
vector 1751  CAIN.ueD2DTx[19].tcp  "receive window"  ETV
vector 1754  CAIN.ueD2DTx[19].tcp  "sent ack"  ETV
vector 813  CAIN.ueD2DTx[19].nic.pdcpRrc  receivedPacketFromUpperLayer:vector(packetBytes)  ETV
attr interpolationmode  none
attr source  receivedPacketFromUpperLayer
vector 816  CAIN.ueD2DTx[19].nic.pdcpRrc  sentPacketToLowerLayer:vector(packetBytes)  ETV
attr interpolationmode  none
attr source  sentPacketToLowerLayer
vector 817  CAIN.ueD2DTx[19].nic.mac  receivedPacketFromUpperLayer:vector(packetBytes)  ETV
attr interpolationmode  none
attr source  receivedPacketFromUpperLayer
vector 1789  CAIN.ueD2DTx[5].tcp  tcpRcvQueueBytes  ETV
vector 1776  CAIN.ueD2DTx[5].tcp  "advertised window"  ETV
vector 1775  CAIN.ueD2DTx[5].tcp  "receive window"  ETV
vector 1778  CAIN.ueD2DTx[5].tcp  "sent ack"  ETV
vector 365  CAIN.ueD2DTx[5].nic.pdcpRrc  receivedPacketFromUpperLayer:vector(packetBytes)  ETV
attr interpolationmode  none
attr source  receivedPacketFromUpperLayer
vector 368  CAIN.ueD2DTx[5].nic.pdcpRrc  sentPacketToLowerLayer:vector(packetBytes)  ETV
attr interpolationmode  none
attr source  sentPacketToLowerLayer
vector 369  CAIN.ueD2DTx[5].nic.mac  receivedPacketFromUpperLayer:vector(packetBytes)  ETV
attr interpolationmode  none
attr source  receivedPacketFromUpperLayer
vector 379  CAIN.ueD2DTx[5].nic.mac  CainHopMessageSent:vector  ETV
attr interpolationmode  none
attr title  "# of Sent CAIN hop message, vector"
vector 372  CAIN.ueD2DTx[5].nic.mac  sentPacketToLowerLayer:vector(packetBytes)  ETV
attr interpolationmode  none
attr source  sentPacketToLowerLayer
vector 115  CAIN.eNodeB.nic.phy  averageCqiUlvect:vector  ETV
attr source  averageCqiUlvect
attr title  "Average Cqi reported in UL, vector"
attr unit  cqi
vector 826  CAIN.ueD2DTx[19].nic.mac  CainMessageSent:vector  ETV
attr interpolationmode  none
attr title  "# of Sent CAIN message, vector"
vector 786  CAIN.ueD2DTx[18].nic.mac  receivedPacketFromLowerLayer:vector(packetBytes)  ETV
attr interpolationmode  none
attr source  receivedPacketFromLowerLayer
vector 787  CAIN.ueD2DTx[18].nic.mac  sentPacketToUpperLayer:vector(packetBytes)  ETV
attr interpolationmode  none
attr source  sentPacketToUpperLayer
vector 274  CAIN.ueD2DTx[2].nic.mac  receivedPacketFromLowerLayer:vector(packetBytes)  ETV
attr interpolationmode  none
attr source  receivedPacketFromLowerLayer
vector 275  CAIN.ueD2DTx[2].nic.mac  sentPacketToUpperLayer:vector(packetBytes)  ETV
attr interpolationmode  none
attr source  sentPacketToUpperLayer
vector 339  CAIN.ueD2DTx[4].nic.mac  sentPacketToUpperLayer:vector(packetBytes)  ETV
attr interpolationmode  none
attr source  sentPacketToUpperLayer
vector 243  CAIN.ueD2DTx[1].nic.mac  sentPacketToUpperLayer:vector(packetBytes)  ETV
attr interpolationmode  none
attr source  sentPacketToUpperLayer
vector 755  CAIN.ueD2DTx[17].nic.mac  sentPacketToUpperLayer:vector(packetBytes)  ETV
attr interpolationmode  none
attr source  sentPacketToUpperLayer
1108	49538 24 150 150 0.0000001228 0.0000001228 1 0 0 0 0
1219	49562 28 235 235 0.0000006304 0.0000006304 1 65535 65535 65535 4294836225
1220	49590 27 235 235 0.0000006304 0.0000006304 1 8940 8940 8940 79923600
1221	49617 29 235 235 0.0000006304 0.0000006304 1 0.3725 0.3725 0.3725 0.13875625
1217	49646 24 235 235 0.0000006304 0.0000006304 1 3 3 3 9
1224	49670 24 235 235 0.0000006304 0.0000006304 1 1 1 1 1
1236	49694 24 163 163 0.0000003096 0.0000003096 1 0 0 0 0
1192	49718 28 235 235 0.0000006304 0.0000006304 1 65535 65535 65535 4294836225
1193	49746 27 235 235 0.0000006304 0.0000006304 1 8940 8940 8940 79923600
1194	49773 29 235 235 0.0000006304 0.0000006304 1 0.3725 0.3725 0.3725 0.13875625
1190	49802 24 235 235 0.0000006304 0.0000006304 1 3 3 3 9
1197	49826 24 235 235 0.0000006304 0.0000006304 1 1 1 1 1
1209	49850 24 163 163 0.0000003096 0.0000003096 1 0 0 0 0
910	49874 27 235 235 0.0000006304 0.0000006304 1 65535 65535 65535 4294836225
911	49901 26 235 235 0.0000006304 0.0000006304 1 8940 8940 8940 79923600
912	49927 28 235 235 0.0000006304 0.0000006304 1 0.3725 0.3725 0.3725 0.13875625
908	49955 46 235 302 0.0000006304 0.0000008564 2 1 3 4 10
909	50001 30 302 302 0.0000008564 0.0000008564 1 2.26e-07 2.26e-07 2.26e-07 5.1076e-14
914	50031 1757 3448 17040 0.0570000972 0.2570014396 63 2000 2062 127953 259893375
917	51788 44 207 221 0.000000552 0.000000596 2 1 2 3 5
916	51832 44 207 221 0.000000552 0.000000596 2 1 2 3 5
918	51876 46 302 308 0.0000008564 0.0000009004 2 1 2 3 5
927	51922 12 131 131 0 0 1 0 0 0 0
886	51934 86 3448 30566 0.0570000972 0.4570014396 3 65533 65535 196603 12884246539
890	52020 1645 3448 30566 0.0570000972 0.4570014396 66 0 112 128 12696
895	53665 74 3448 30566 0.0570000972 0.4570014396 3 0 0 0 0
896	53739 74 3448 30566 0.0570000972 0.4570014396 3 0 0 0 0
897	53813 74 3448 30566 0.0570000972 0.4570014396 3 0 0 0 0
898	53887 74 3448 30566 0.0570000972 0.4570014396 3 0 0 0 0
899	53961 74 3448 30566 0.0570000972 0.4570014396 3 0 0 0 0
900	54035 74 3448 30566 0.0570000972 0.4570014396 3 0 0 0 0
901	54109 74 3448 30566 0.0570000972 0.4570014396 3 0 0 0 0
902	54183 77 3448 30566 0.0570000972 0.4570014396 3 16 16 48 768
904	54260 27 163 163 0.0000003096 0.0000003096 1 65535 65535 65535 4294836225
906	54287 2071 3451 17097 0.0570000972 0.2570014396 63 9.72e-08 9.772e-07 5.58836e-05 5.367335792e-11
907	56358 12 131 131 0 0 1 0 0 0 0
1138	56370 27 178 178 0.000000458 0.000000458 1 65535 65535 65535 4294836225
1139	56397 26 178 178 0.000000458 0.000000458 1 8940 8940 8940 79923600
1140	56423 28 178 178 0.000000458 0.000000458 1 0.3725 0.3725 0.3725 0.13875625
1136	56451 23 178 178 0.000000458 0.000000458 1 3 3 3 9
1143	56474 23 178 178 0.000000458 0.000000458 1 1 1 1 1
1151	56497 76 636 27256 0.0070001912 0.4070015336 3 0 0 0 0
1152	56573 76 636 27256 0.0070001912 0.4070015336 3 0 0 0 0
1153	56649 76 636 27256 0.0070001912 0.4070015336 3 0 0 0 0
1155	56725 24 150 150 0.0000001228 0.0000001228 1 0 0 0 0
1111	56749 27 178 178 0.000000458 0.000000458 1 65535 65535 65535 4294836225
1112	56776 26 178 178 0.000000458 0.000000458 1 8940 8940 8940 79923600
1113	56802 28 178 178 0.000000458 0.000000458 1 0.3725 0.3725 0.3725 0.13875625
1109	56830 23 178 178 0.000000458 0.000000458 1 3 3 3 9
1116	56853 23 178 178 0.000000458 0.000000458 1 1 1 1 1
1124	56876 76 636 27256 0.0070001912 0.4070015336 3 0 0 0 0
1125	56952 76 636 27256 0.0070001912 0.4070015336 3 0 0 0 0
1126	57028 76 636 27256 0.0070001912 0.4070015336 3 0 0 0 0
1128	57104 24 150 150 0.0000001228 0.0000001228 1 0 0 0 0
1165	57128 57 178 80186 0.000000458 1.2070004624 2 65535 65535 131070 8589672450
1166	57185 55 178 80186 0.000000458 1.2070004624 2 8940 8940 17880 159847200
1167	57240 58 178 80186 0.000000458 1.2070004624 2 0.3725 23.84 24.2125 568.48435625
1163	57298 123 178 27256 0.000000458 0.4070015336 5 1 3 7 13
1164	57421 138 255 27256 0.0000006744 0.4070015336 4 1.912e-07 0.2000010712 0.40000175 0.080000536961304
1168	57559 1806 587 13479 0.007 0.2070004624 63 2000 2062 127953 259893375
1172	59365 48 273 287 0.0000007624 0.0000008064 2 1 2 3 5
1171	59413 48 273 287 0.0000007624 0.0000008064 2 1 2 3 5
1173	59461 48 255 265 0.0000006744 0.0000007184 2 1 2 3 5
1174	59509 3372 587 27256 0.007 0.4070015336 126 0 112 6346 468972
1175	62881 3372 587 27256 0.007 0.4070015336 126 0 112 6346 468972
1178	66253 76 636 27256 0.0070001912 0.4070015336 3 0 0 0 0
1179	66329 76 636 27256 0.0070001912 0.4070015336 3 0 0 0 0
1180	66405 76 636 27256 0.0070001912 0.4070015336 3 0 0 0 0
1181	66481 76 636 27256 0.0070001912 0.4070015336 3 0 0 0 0
1182	66557 24 150 150 0.0000001228 0.0000001228 1 0 0 0 0
1185	66581 85 636 27256 0.0070001912 0.4070015336 3 2000 2062 6068 12275880
1187	66666 76 636 27256 0.0070001912 0.4070015336 3 0 0 0 0
1188	66742 76 636 27256 0.0070001912 0.4070015336 3 0 0 0 0
1304	66818 76 636 27256 0.0070001912 0.4070015336 3 0 0 0 0
1305	66894 2830 587 13479 0.007 0.2070004624 126 0 56 3173 117243
848	69724 3246 587 27256 0.007 0.4070015336 126 0 112 6346 468972
847	72970 3246 587 27256 0.007 0.4070015336 126 0 112 6346 468972
849	76216 73 636 27256 0.0070001912 0.4070015336 3 0 0 0 0
850	76289 73 636 27256 0.0070001912 0.4070015336 3 0 0 0 0
859	76362 85 636 27256 0.0070001912 0.4070015336 3 65533 65535 196603 12884246539
860	76447 112 150 27256 0.0000001228 0.4070015336 4 65533 65535 262138 17179082764
863	76559 12 123 123 0 0 1 0 0 0 0
1005	76571 24 149 149 0.0000001228 0.0000001228 1 0 0 0 0
1273	76595 28 236 236 0.0000006304 0.0000006304 1 65535 65535 65535 4294836225
1274	76623 27 236 236 0.0000006304 0.0000006304 1 8940 8940 8940 79923600
1275	76650 29 236 236 0.0000006304 0.0000006304 1 0.3725 0.3725 0.3725 0.13875625
1271	76679 24 236 236 0.0000006304 0.0000006304 1 3 3 3 9
1278	76703 24 236 236 0.0000006304 0.0000006304 1 1 1 1 1
1290	76727 24 164 164 0.0000003096 0.0000003096 1 0 0 0 0
1246	76751 28 236 236 0.0000006304 0.0000006304 1 65535 65535 65535 4294836225
1247	76779 27 236 236 0.0000006304 0.0000006304 1 8940 8940 8940 79923600
1248	76806 29 236 236 0.0000006304 0.0000006304 1 0.3725 0.3725 0.3725 0.13875625
1244	76835 24 236 236 0.0000006304 0.0000006304 1 3 3 3 9
1251	76859 24 236 236 0.0000006304 0.0000006304 1 1 1 1 1
1263	76883 24 164 164 0.0000003096 0.0000003096 1 0 0 0 0
959	76907 27 236 236 0.0000006304 0.0000006304 1 65535 65535 65535 4294836225
960	76934 26 236 236 0.0000006304 0.0000006304 1 8940 8940 8940 79923600
961	76960 28 236 236 0.0000006304 0.0000006304 1 0.3725 0.3725 0.3725 0.13875625
957	76988 46 236 301 0.0000006304 0.0000008564 2 1 3 4 10
958	77034 30 301 301 0.0000008564 0.0000008564 1 2.26e-07 2.26e-07 2.26e-07 5.1076e-14
963	77064 1750 624 13486 0.0070000972 0.2070014396 63 2000 2062 127953 259893375
966	78814 44 208 222 0.000000552 0.000000596 2 1 2 3 5
965	78858 44 208 222 0.000000552 0.000000596 2 1 2 3 5
967	78902 46 301 307 0.0000008564 0.0000009004 2 1 2 3 5
976	78948 12 132 132 0 0 1 0 0 0 0
935	78960 85 624 27249 0.0070000972 0.4070014396 3 65533 65535 196603 12884246539
939	79045 1637 624 27249 0.0070000972 0.4070014396 66 0 112 128 12696
944	80682 73 624 27249 0.0070000972 0.4070014396 3 0 0 0 0
945	80755 73 624 27249 0.0070000972 0.4070014396 3 0 0 0 0
946	80828 73 624 27249 0.0070000972 0.4070014396 3 0 0 0 0
947	80901 73 624 27249 0.0070000972 0.4070014396 3 0 0 0 0
948	80974 73 624 27249 0.0070000972 0.4070014396 3 0 0 0 0
949	81047 73 624 27249 0.0070000972 0.4070014396 3 0 0 0 0
950	81120 73 624 27249 0.0070000972 0.4070014396 3 0 0 0 0
951	81193 76 624 27249 0.0070000972 0.4070014396 3 16 16 48 768
953	81269 27 164 164 0.0000003096 0.0000003096 1 65535 65535 65535 4294836225
955	81296 2064 627 13543 0.0070000972 0.2070014396 63 9.72e-08 9.772e-07 5.58836e-05 5.367335792e-11
956	83360 12 132 132 0 0 1 0 0 0 0
1035	83372 27 177 177 0.000000458 0.000000458 1 65535 65535 65535 4294836225
1036	83399 26 177 177 0.000000458 0.000000458 1 8940 8940 8940 79923600
1037	83425 28 177 177 0.000000458 0.000000458 1 0.3725 0.3725 0.3725 0.13875625
1033	83453 23 177 177 0.000000458 0.000000458 1 3 3 3 9
1040	83476 23 177 177 0.000000458 0.000000458 1 1 1 1 1
1048	83499 77 3460 30573 0.0570001912 0.4570015336 3 0 0 0 0
1049	83576 77 3460 30573 0.0570001912 0.4570015336 3 0 0 0 0
1050	83653 77 3460 30573 0.0570001912 0.4570015336 3 0 0 0 0
1052	83730 24 149 149 0.0000001228 0.0000001228 1 0 0 0 0
1008	83754 27 177 177 0.000000458 0.000000458 1 65535 65535 65535 4294836225
1009	83781 26 177 177 0.000000458 0.000000458 1 8940 8940 8940 79923600
1010	83807 28 177 177 0.000000458 0.000000458 1 0.3725 0.3725 0.3725 0.13875625
1006	83835 23 177 177 0.000000458 0.000000458 1 3 3 3 9
1013	83858 23 177 177 0.000000458 0.000000458 1 1 1 1 1
1021	83881 77 3460 30573 0.0570001912 0.4570015336 3 0 0 0 0
1022	83958 77 3460 30573 0.0570001912 0.4570015336 3 0 0 0 0
1023	84035 77 3460 30573 0.0570001912 0.4570015336 3 0 0 0 0
1025	84112 24 149 149 0.0000001228 0.0000001228 1 0 0 0 0
1062	84136 57 177 83519 0.000000458 1.2570004624 2 65535 65535 131070 8589672450
1063	84193 55 177 83519 0.000000458 1.2570004624 2 8940 8940 17880 159847200
1064	84248 58 177 83519 0.000000458 1.2570004624 2 0.3725 23.84 24.2125 568.48435625
1060	84306 124 177 30573 0.000000458 0.4570015336 5 1 3 7 13
1061	84430 139 256 30573 0.0000006744 0.4570015336 4 1.912e-07 0.2000010712 0.40000175 0.080000536961304
1065	84569 1813 3392 17033 0.057 0.2570004624 63 2000 2062 127953 259893375
1069	86382 48 274 288 0.0000007624 0.0000008064 2 1 2 3 5
1068	86430 48 274 288 0.0000007624 0.0000008064 2 1 2 3 5
1070	86478 48 256 266 0.0000006744 0.0000007184 2 1 2 3 5
1071	86526 3380 3392 30573 0.057 0.4570015336 126 0 112 6346 468972
1072	89906 3380 3392 30573 0.057 0.4570015336 126 0 112 6346 468972
1075	93286 77 3460 30573 0.0570001912 0.4570015336 3 0 0 0 0
1076	93363 77 3460 30573 0.0570001912 0.4570015336 3 0 0 0 0
1077	93440 77 3460 30573 0.0570001912 0.4570015336 3 0 0 0 0
1078	93517 77 3460 30573 0.0570001912 0.4570015336 3 0 0 0 0
1079	93594 24 149 149 0.0000001228 0.0000001228 1 0 0 0 0
1082	93618 86 3460 30573 0.0570001912 0.4570015336 3 2000 2062 6068 12275880
1084	93704 77 3460 30573 0.0570001912 0.4570015336 3 0 0 0 0
1085	93781 77 3460 30573 0.0570001912 0.4570015336 3 0 0 0 0
1300	93858 77 3460 30573 0.0570001912 0.4570015336 3 0 0 0 0
1301	93935 2851 3392 17033 0.057 0.2570004624 126 0 56 3173 117243
870	96786 3254 3392 30573 0.057 0.4570015336 126 0 112 6346 468972
869	100040 3254 3392 30573 0.057 0.4570015336 126 0 112 6346 468972
871	103294 74 3460 30573 0.0570001912 0.4570015336 3 0 0 0 0
872	103368 74 3460 30573 0.0570001912 0.4570015336 3 0 0 0 0
881	103442 86 3460 30573 0.0570001912 0.4570015336 3 65533 65535 196603 12884246539
882	103528 113 149 30573 0.0000001228 0.4570015336 4 65533 65535 262138 17179082764
885	103641 12 128 128 0 0 1 0 0 0 0
8	103653 8 0 0 0 0 1 0 0 0 0
9	103661 8 0 0 0 0 1 0 0 0 0
24	103669 9 0 0 0 0 1 0 0 0 0
25	103678 9 0 0 0 0 1 0 0 0 0
35	103687 9 0 0 0 0 1 0 0 0 0
36	103696 9 0 0 0 0 1 0 0 0 0
56	103705 9 0 0 0 0 1 0 0 0 0
57	103714 9 0 0 0 0 1 0 0 0 0
67	103723 9 0 0 0 0 1 0 0 0 0
68	103732 9 0 0 0 0 1 0 0 0 0
78	103741 9 0 0 0 0 1 0 0 0 0
79	103750 9 0 0 0 0 1 0 0 0 0
96	103759 1003133 378 700126 0.002 10 56815 0 0 0 0
98	1106892 355422 1241 700126 0.02 10 20276 0 0 0 0
100	1462314 113643 2126 700111 0.037 10 5304 1 5304 14068860 49752178580
101	1575957 235161 1241 700126 0.02 10 10979 1 10979 60274710 441190785630
106	1811118 671452 1241 700126 0.02 10 32480 320 649 12390489 4866090913
108	2482570 99694 4211 700008 0.068 9.998 5289 2 5 26416 131988
109	2582264 216517 3820 700010 0.062 9.998 10908 10 12 130861 1569973
111	2798781 755820 1241 700126 0.02 10 33816 1 33816 571777836 12890350127396
112	3554601 681394 1241 700126 0.02 10 33816 60 237 4408668 723896468
113	4235995 631662 1241 700126 0.02 10 33816 0 0 0 0
115	4867657 24901 6433 699571 0.102 9.992 1321 7 7 9247 64729
120	4892558 10 0 0 0 0 1 0 0 0 0
121	4892568 10 0 0 0 0 1 0 0 0 0
128	4892578 421 139 30568 0 0.4570014396 18 36 1152 2284 1426960
130	4892999 438 139 30568 0 0.4570014396 18 0 8.8e-08 3.088e-07 1.946112e-14
131	4893437 280 0 258 0 0.0000007124 13 0 2 10 14
132	4893717 828 0 30570 0 0.4570014836 37 0 1 18 18
133	4894545 423 141 30569 0 0.4570014396 18 43 1159 2410 1459818
134	4894968 442 146 27254 0.0000001228 0.4070015336 18 43 1159 2410 1459818
137	4895410 423 141 30569 0 0.4570014396 18 36 1152 2284 1426960
138	4895833 442 146 27254 0.0000001228 0.4070015336 18 36 1152 2284 1426960
141	4896275 1568 3453 17208 0.0570000972 0.2570014396 63 2 2 126 252
154	4897843 242266 3582 700108 0.059 10 13023 0 0 0 0
156	5140109 53236 3582 700108 0.059 10 2844 0 0 0 0
169	5193345 29439 3582 700108 0.059 10 1424 1 1424 1014600 963531800
170	5222784 29122 3582 700108 0.059 10 1424 237 532 747876 395445662
171	5251906 26274 3582 700108 0.059 10 1424 0 0 0 0
178	5278180 10 0 0 0 0 1 0 0 0 0
179	5278190 10 0 0 0 0 1 0 0 0 0
186	5278200 422 140 27251 0 0.4070014396 18 36 1152 2284 1426960
188	5278622 439 140 27251 0 0.4070014396 18 0 8.8e-08 3.088e-07 1.946112e-14
189	5279061 280 0 257 0 0.0000007124 13 0 2 10 14
190	5279341 830 0 27253 0 0.4070014836 37 0 1 18 18
191	5280171 424 142 27252 0 0.4070014396 18 43 1159 2410 1459818
192	5280595 441 145 30571 0.0000001228 0.4570015336 18 43 1159 2410 1459818
195	5281036 424 142 27252 0 0.4070014396 18 36 1152 2284 1426960
196	5281460 441 145 30571 0.0000001228 0.4570015336 18 36 1152 2284 1426960
199	5281901 1561 629 13654 0.0070000972 0.2070014396 63 2 2 126 252
205	5283462 85 5483 634747 0.088784986169 9.088784986169 3 44 44 132 5808
208	5283547 85 5483 634747 0.088784986169 9.088784986169 3 45 45 135 6075
209	5283632 85 5486 634750 0.088784986169 9.088784986169 3 45 45 135 6075
212	5283717 26294 5489 700013 0.089 9.999 1384 0 0 0 0
218	5310011 29339 5489 700013 0.089 9.999 1384 1 1384 958420 884621660
231	5339350 163 0 6629 0 0.105 10 1 2 19 37
237	5339513 85 3945 632899 0.064770889489 9.064770889489 3 44 44 132 5808
240	5339598 85 3945 632899 0.064770889489 9.064770889489 3 45 45 135 6075
241	5339683 125 3948 633248 0.064770889489 9.069 5 45 47 229 10493
242	5339808 93 4107 633217 0.067 9.068 5 0 0 0 0
243	5339901 38 203602 633244 3.069 9.069 2 0 0 0 0
244	5339939 55 3952 632908 0.065 9.065 3 0 0 0 0
263	5339994 163 0 6630 0 0.105 10 1 2 19 37
269	5340157 85 1854 630509 0.032649362497 9.032649362497 3 44 44 132 5808
272	5340242 85 1854 630509 0.032649362497 9.032649362497 3 45 45 135 6075
273	5340327 125 1857 630806 0.032649362497 9.037 5 45 47 229 10493
274	5340452 76 201152 630738 3.035 9.036 4 0 0 0 0
275	5340528 38 201283 630802 3.037 9.037 2 0 0 0 0
276	5340566 123 1862 630517 0.033 9.033 7 0 0 0 0
283	5340689 85 1862 3070 0.033 0.053 5 1 5 15 55
295	5340774 163 0 6631 0 0.105 10 1 2 19 37
301	5340937 85 2052 630774 0.036651693161 9.036651693161 3 44 44 132 5808
304	5341022 85 2052 630774 0.036651693161 9.036651693161 3 45 45 135 6075
305	5341107 85 2055 630777 0.036651693161 9.036651693161 3 45 45 135 6075
308	5341192 37548 2102 699858 0.037 9.997 1993 0 0 0 0
315	5378740 42420 2102 699858 0.037 9.997 1993 1 1993 1987021 2640750909
327	5421160 10 0 0 0 0 1 1 1 1 1
333	5421170 85 3502 632367 0.057963030662 9.057963030662 3 44 44 132 5808
336	5421255 85 3502 632367 0.057963030662 9.057963030662 3 45 45 135 6075
337	5421340 655 3505 637971 0.057963030662 9.132 33 5 45 285 6825
338	5421995 45281 1381 700005 0.024 9.998 2406 0 0 0 0
339	5467276 570 203055 637967 3.062 9.132 30 0 0 0 0
340	5467846 44441 1381 700005 0.024 9.998 2359 0 0 0 0
345	5512287 297 1520 3442 0.026 0.057 17 1 17 153 1785
359	5512584 163 0 6632 0 0.105 10 1 2 19 37
365	5512747 82 6010 635340 0.09658703896 9.09658703896 3 44 44 132 5808
368	5512829 82 6010 635340 0.09658703896 9.09658703896 3 45 45 135 6075
369	5512911 82 6013 635343 0.09658703896 9.09658703896 3 45 45 135 6075
372	5512993 37344 6042 699861 0.097 9.997 1981 0 0 0 0
379	5550337 42180 6042 699861 0.097 9.997 1981 1 1981 1963171 2593348891
391	5592517 10 0 0 0 0 1 1 1 1 1
397	5592527 82 1525 630052 0.02660460389 9.02660460389 3 44 44 132 5808
400	5592609 82 1525 630052 0.02660460389 9.02660460389 3 45 45 135 6075
401	5592691 82 1528 630055 0.02660460389 9.02660460389 3 45 45 135 6075
404	5592773 37582 1537 699863 0.027 9.997 1995 0 0 0 0
411	5630355 42460 1537 699863 0.027 9.997 1995 1 1995 1991010 2648706970
423	5672815 10 0 0 0 0 1 1 1 1 1
429	5672825 85 3279 632182 0.055890854003 9.055890854003 3 44 44 132 5808
432	5672910 85 3279 632182 0.055890854003 9.055890854003 3 45 45 135 6075
433	5672995 140 3282 632524 0.055890854003 9.06 6 45 47 276 12702
434	5673135 298570 1175 700105 0.019 10 15902 0 0 0 0
435	5971705 52 3628 632520 0.06 9.06 3 0 0 0 0
436	5971757 298379 1175 700105 0.019 10 15891 0 0 0 0
441	6270136 136 1268 3368 0.021 0.056 8 1 8 36 204
455	6270272 10 0 0 0 0 1 1 1 1 1
461	6270282 85 2309 631073 0.040940929686 9.040940929686 3 44 44 132 5808
464	6270367 85 2309 631073 0.040940929686 9.040940929686 3 45 45 135 6075
465	6270452 85 2312 631076 0.040940929686 9.040940929686 3 45 45 135 6075
468	6270537 37531 2323 699784 0.041 9.996 1992 0 0 0 0
475	6308068 42400 2323 699784 0.041 9.996 1992 1 1992 1985028 2636778860
487	6350468 10 0 0 0 0 1 1 1 1 1
493	6350478 85 4853 634028 0.079275280847 9.079275280847 3 44 44 132 5808
496	6350563 85 4853 634028 0.079275280847 9.079275280847 3 45 45 135 6075
497	6350648 143 4856 634380 0.079275280847 9.084 6 45 47 276 12702
498	6350791 248888 1635 700129 0.029 10 13289 0 0 0 0
499	6599679 55 5151 634376 0.084 9.084 3 0 0 0 0
500	6599734 248303 1635 700129 0.029 10 13255 0 0 0 0
505	6848037 549 1774 5065 0.031 0.082 31 1 31 496 10416
519	6848586 10 0 0 0 0 1 1 1 1 1
525	6848596 85 5072 634283 0.082257983647 9.082257983647 3 44 44 132 5808
528	6848681 85 5072 634283 0.082257983647 9.082257983647 3 45 45 135 6075
529	6848766 85 5075 634286 0.082257983647 9.082257983647 3 45 45 135 6075
532	6848851 37396 5088 699917 0.083 9.998 1984 0 0 0 0
538	6886247 42241 5088 699917 0.083 9.998 1984 1 1984 1969120 2605145760
551	6928488 10 0 0 0 0 1 1 1 1 1
557	6928498 82 2793 631647 0.04821039218 9.04821039218 3 44 44 132 5808
560	6928580 82 2793 631647 0.04821039218 9.04821039218 3 45 45 135 6075
561	6928662 253 2796 632796 0.04821039218 9.063 12 3 45 288 9558
562	6928915 330 3005 632751 0.051 9.062 18 0 0 0 0
563	6929245 165 3080 632792 0.053 9.063 9 0 0 0 0
564	6929410 165 2851 632448 0.049 9.059 9 0 0 0 0
583	6929575 10 0 0 0 0 1 1 1 1 1
589	6929585 85 1602 630177 0.028371024961 9.028371024961 3 44 44 132 5808
592	6929670 85 1602 630177 0.028371024961 9.028371024961 3 45 45 135 6075
593	6929755 85 1605 630180 0.028371024961 9.028371024961 3 45 45 135 6075
596	6929840 26607 1620 700026 0.029 9.999 1401 0 0 0 0
603	6956447 29703 1620 700026 0.029 9.999 1401 1 1401 982101 917609701
615	6986150 163 0 6633 0 0.105 10 1 2 19 37
621	6986313 85 1033 629267 0.016038050947 9.016038050947 3 44 44 132 5808
624	6986398 85 1033 629267 0.016038050947 9.016038050947 3 45 45 135 6075
625	6986483 85 1036 629270 0.016038050947 9.016038050947 3 45 45 135 6075
628	6986568 37616 1052 699871 0.017 9.997 1997 0 0 0 0
635	7024184 42500 1052 699871 0.017 9.997 1997 1 1997 1995003 2656678995
647	7066684 10 0 0 0 0 1 1 1 1 1
653	7066694 85 1560 630114 0.027878343419 9.027878343419 3 44 44 132 5808
656	7066779 85 1560 630114 0.027878343419 9.027878343419 3 45 45 135 6075
657	7066864 85 1563 630117 0.027878343419 9.027878343419 3 45 45 135 6075
660	7066949 37583 1580 699922 0.028 9.998 1995 0 0 0 0
667	7104532 42461 1580 699922 0.028 9.998 1995 1 1995 1991010 2648706970
679	7146993 10 0 0 0 0 1 1 1 1 1
685	7147003 85 1939 630623 0.034516076937 9.034516076937 3 44 44 132 5808
688	7147088 85 1939 630623 0.034516076937 9.034516076937 3 45 45 135 6075
689	7147173 85 1942 630626 0.034516076937 9.034516076937 3 45 45 135 6075
690	7147258 120262 1331 700102 0.023 10 6417 0 0 0 0
692	7267520 156712 1331 700102 0.023 10 8411 0 0 0 0
698	7424232 41325 1960 700090 0.035 10 1994 1 1994 1989015 2644726945
711	7465557 10 0 0 0 0 1 1 1 1 1
717	7465567 85 3897 632839 0.063891002787 9.063891002787 3 44 44 132 5808
720	7465652 85 3897 632839 0.063891002787 9.063891002787 3 45 45 135 6075
721	7465737 85 3900 632842 0.063891002787 9.063891002787 3 45 45 135 6075
722	7465822 74962 1107 699999 0.018 9.998 3978 0 0 0 0
724	7540784 112426 1107 700031 0.018 9.999 5966 0 0 0 0
730	7653210 42321 3919 700031 0.064 9.999 1988 1 1988 1977066 2620930494
743	7695531 10 0 0 0 0 1 1 1 1 1
749	7695541 85 5475 634740 0.088577514598 9.088577514598 3 44 44 132 5808
752	7695626 85 5475 634740 0.088577514598 9.088577514598 3 45 45 135 6075
753	7695711 26343 5478 699930 0.088577514598 9.998 1385 0 45 135 6075
754	7722054 78051 5578 700099 0.09 10 4149 0 0 0 0
755	7800105 26258 205383 699926 3.093 9.998 1382 0 0 0 0
756	7826363 51812 5508 700099 0.089 10 2768 0 0 0 0
775	7878175 163 0 6634 0 0.105 10 1 2 19 37
781	7878338 85 1273 629656 0.021540784608 9.021540784608 3 44 44 132 5808
784	7878423 85 1273 629656 0.021540784608 9.021540784608 3 45 45 135 6075
785	7878508 165 1276 630360 0.021540784608 9.031 7 19 45 233 8597
786	7878673 26636 200376 699806 3.024 9.996 1402 0 0 0 0
787	7905309 76 200477 630356 3.026 9.031 4 0 0 0 0
788	7905385 26681 1298 699806 0.022 9.996 1405 0 0 0 0
795	7932066 119 1298 3046 0.022 0.052 7 1 7 28 140
807	7932185 163 0 6635 0 0.105 10 1 2 19 37
813	7932348 85 6002 635333 0.096236986774 9.096236986774 3 44 44 132 5808
816	7932433 85 6002 635333 0.096236986774 9.096236986774 3 45 45 135 6075
817	7932518 85 6005 635336 0.096236986774 9.096236986774 3 45 45 135 6075
818	7932603 192660 2031 700043 0.036 9.999 10284 0 0 0 0
820	8125263 180539 2031 700043 0.036 9.999 9599 0 0 0 0
824	8305802 225 2213 6181 0.038 0.098 13 1 13 91 819
825	8306027 184 2637 5931 0.045 0.095 11 1 11 66 506
826	8306211 13656 7780 699878 0.122 9.997 660 1 660 218130 96049910
839	8319867 10 0 0 0 0 1 1 1 1 1
1319	8319877 94 1030 629264 0.016038050947 9.016038050947 3 7504 7504 22512 168930048
1320	8319971 94 1030 629264 0.016038050947 9.016038050947 3 7504 7504 22512 168930048
1322	8320065 85 1030 629264 0.016038050947 9.016038050947 3 0 0 0 0
1333	8320150 85 1030 629264 0.016038050947 9.016038050947 3 0 0 0 0
1343	8320235 94 1270 629653 0.021540784608 9.021540784608 3 7504 7504 22512 168930048
1344	8320329 94 1270 629653 0.021540784608 9.021540784608 3 7504 7504 22512 168930048
1346	8320423 85 1270 629653 0.021540784608 9.021540784608 3 0 0 0 0
1357	8320508 85 1270 629653 0.021540784608 9.021540784608 3 0 0 0 0
1367	8320593 91 1522 630049 0.02660460389 9.02660460389 3 7504 7504 22512 168930048
1368	8320684 91 1522 630049 0.02660460389 9.02660460389 3 7504 7504 22512 168930048
1370	8320775 82 1522 630049 0.02660460389 9.02660460389 3 0 0 0 0
1381	8320857 82 1522 630049 0.02660460389 9.02660460389 3 0 0 0 0
1391	8320939 94 1557 630111 0.027878343419 9.027878343419 3 7504 7504 22512 168930048
1392	8321033 94 1557 630111 0.027878343419 9.027878343419 3 7504 7504 22512 168930048
1394	8321127 85 1557 630111 0.027878343419 9.027878343419 3 0 0 0 0
1405	8321212 85 1557 630111 0.027878343419 9.027878343419 3 0 0 0 0
1415	8321297 94 1599 630174 0.028371024961 9.028371024961 3 7504 7504 22512 168930048
1416	8321391 94 1599 630174 0.028371024961 9.028371024961 3 7504 7504 22512 168930048
1418	8321485 85 1599 630174 0.028371024961 9.028371024961 3 0 0 0 0
1429	8321570 85 1599 630174 0.028371024961 9.028371024961 3 0 0 0 0
1439	8321655 94 1851 630506 0.032649362497 9.032649362497 3 7504 7504 22512 168930048
1440	8321749 94 1851 630506 0.032649362497 9.032649362497 3 7504 7504 22512 168930048
1442	8321843 85 1851 630506 0.032649362497 9.032649362497 3 0 0 0 0
1453	8321928 85 1851 630506 0.032649362497 9.032649362497 3 0 0 0 0
1463	8322013 94 1936 630620 0.034516076937 9.034516076937 3 7504 7504 22512 168930048
1464	8322107 94 1936 630620 0.034516076937 9.034516076937 3 7504 7504 22512 168930048
1466	8322201 85 1936 630620 0.034516076937 9.034516076937 3 0 0 0 0
1477	8322286 85 1936 630620 0.034516076937 9.034516076937 3 0 0 0 0
1487	8322371 94 2049 630771 0.036651693161 9.036651693161 3 7504 7504 22512 168930048
1488	8322465 94 2049 630771 0.036651693161 9.036651693161 3 7504 7504 22512 168930048
1490	8322559 85 2049 630771 0.036651693161 9.036651693161 3 0 0 0 0
1501	8322644 85 2049 630771 0.036651693161 9.036651693161 3 0 0 0 0
1511	8322729 94 2306 631070 0.040940929686 9.040940929686 3 7504 7504 22512 168930048
1512	8322823 94 2306 631070 0.040940929686 9.040940929686 3 7504 7504 22512 168930048
1514	8322917 85 2306 631070 0.040940929686 9.040940929686 3 0 0 0 0
1525	8323002 85 2306 631070 0.040940929686 9.040940929686 3 0 0 0 0
1535	8323087 91 2790 631644 0.04821039218 9.04821039218 3 7504 7504 22512 168930048
1536	8323178 91 2790 631644 0.04821039218 9.04821039218 3 7504 7504 22512 168930048
1538	8323269 82 2790 631644 0.04821039218 9.04821039218 3 0 0 0 0
1549	8323351 82 2790 631644 0.04821039218 9.04821039218 3 0 0 0 0
1559	8323433 94 3276 632179 0.055890854003 9.055890854003 3 7504 7504 22512 168930048
1560	8323527 94 3276 632179 0.055890854003 9.055890854003 3 7504 7504 22512 168930048
1562	8323621 85 3276 632179 0.055890854003 9.055890854003 3 0 0 0 0
1573	8323706 85 3276 632179 0.055890854003 9.055890854003 3 0 0 0 0
1583	8323791 94 3499 632364 0.057963030662 9.057963030662 3 7504 7504 22512 168930048
1584	8323885 94 3499 632364 0.057963030662 9.057963030662 3 7504 7504 22512 168930048
1586	8323979 85 3499 632364 0.057963030662 9.057963030662 3 0 0 0 0
1597	8324064 85 3499 632364 0.057963030662 9.057963030662 3 0 0 0 0
1607	8324149 94 3894 632836 0.063891002787 9.063891002787 3 7504 7504 22512 168930048
1608	8324243 94 3894 632836 0.063891002787 9.063891002787 3 7504 7504 22512 168930048
1610	8324337 85 3894 632836 0.063891002787 9.063891002787 3 0 0 0 0
1621	8324422 85 3894 632836 0.063891002787 9.063891002787 3 0 0 0 0
1631	8324507 94 3942 632896 0.064770889489 9.064770889489 3 7504 7504 22512 168930048
1632	8324601 94 3942 632896 0.064770889489 9.064770889489 3 7504 7504 22512 168930048
1634	8324695 85 3942 632896 0.064770889489 9.064770889489 3 0 0 0 0
1645	8324780 85 3942 632896 0.064770889489 9.064770889489 3 0 0 0 0
1655	8324865 94 4850 634025 0.079275280847 9.079275280847 3 7504 7504 22512 168930048
1656	8324959 94 4850 634025 0.079275280847 9.079275280847 3 7504 7504 22512 168930048
1658	8325053 85 4850 634025 0.079275280847 9.079275280847 3 0 0 0 0
1669	8325138 85 4850 634025 0.079275280847 9.079275280847 3 0 0 0 0
1679	8325223 94 5069 634280 0.082257983647 9.082257983647 3 7504 7504 22512 168930048
1680	8325317 94 5069 634280 0.082257983647 9.082257983647 3 7504 7504 22512 168930048
1682	8325411 85 5069 634280 0.082257983647 9.082257983647 3 0 0 0 0
1693	8325496 85 5069 634280 0.082257983647 9.082257983647 3 0 0 0 0
1703	8325581 94 5472 634737 0.088577514598 9.088577514598 3 7504 7504 22512 168930048
1704	8325675 94 5472 634737 0.088577514598 9.088577514598 3 7504 7504 22512 168930048
1706	8325769 85 5472 634737 0.088577514598 9.088577514598 3 0 0 0 0
1717	8325854 85 5472 634737 0.088577514598 9.088577514598 3 0 0 0 0
1727	8325939 94 5480 634744 0.088784986169 9.088784986169 3 7504 7504 22512 168930048
1728	8326033 94 5480 634744 0.088784986169 9.088784986169 3 7504 7504 22512 168930048
1730	8326127 85 5480 634744 0.088784986169 9.088784986169 3 0 0 0 0
1741	8326212 85 5480 634744 0.088784986169 9.088784986169 3 0 0 0 0
1751	8326297 94 5999 635330 0.096236986774 9.096236986774 3 7504 7504 22512 168930048
1752	8326391 94 5999 635330 0.096236986774 9.096236986774 3 7504 7504 22512 168930048
1754	8326485 85 5999 635330 0.096236986774 9.096236986774 3 0 0 0 0
1765	8326570 85 5999 635330 0.096236986774 9.096236986774 3 0 0 0 0
1775	8326655 91 6007 635337 0.09658703896 9.09658703896 3 7504 7504 22512 168930048
1776	8326746 91 6007 635337 0.09658703896 9.09658703896 3 7504 7504 22512 168930048
1778	8326837 82 6007 635337 0.09658703896 9.09658703896 3 0 0 0 0
1789	8326919 82 6007 635337 0.09658703896 9.09658703896 3 0 0 0 0
