file 4125646 1580828042                                         
version 2
run CAIN-109-20200204-11:52:55-10128
attr configname CAIN
attr datetime 20200204-11:52:55
attr dist 210
attr experiment CAIN
attr inifile omnetpp.ini
attr iterationvars "$dist=210, $mob=\"./movements/RWPRPGM-0.5.movements\""
attr iterationvars2 "$dist=210, $mob=\"./movements/RWPRPGM-0.5.movements\", $repetition=4"
attr measurement "$dist=210, $mob=\"./movements/RWPRPGM-0.5.movements\""
attr mob "\"./movements/RWPRPGM-0.5.movements\""
attr network lte.simulations.networks.CAIN
attr processid 10128
attr repetition 4
attr replication #4
attr resultdir results
attr runnumber 109
attr seedset 4
param **.**.amcMode "\"AUTO\""
param **.amcMode "\"D2D\""
param **.cainNetwork true
param **.channelControl.alpha 1.0
param **.channelControl.carrierFrequency 2100e+6Hz
param **.channelControl.pMax 10W
param **.d2dCqi 7
param **.deployer.numRbDl 50
param **.deployer.numRbUl 50
param **.distThresh "${dist=200..260 step 10}"
param **.fbDelay 1
param **.feedbackComputation "xmldoc(\"config_channel.xml\")"
param **.mobility.constraintAreaMaxX 1000m
param **.mobility.constraintAreaMaxY 1000m
param **.mobility.constraintAreaMaxZ 0m
param **.mobility.constraintAreaMinX 0m
param **.mobility.constraintAreaMinY 0m
param **.mobility.constraintAreaMinZ 0m
param **.nic.phy.channelModel "xmldoc(\"config_channel.xml\")"
param **.numBands 50
param **.pwrThresh -10
param **.qtdThresh 3
param **.rbAllocationType "\"localized\""
param **.routingRecorder.enabled false
param **.tcpApp[*].tClose -1s
param **.ueD2DTx[*].mobility.changeAngleBy "normal(0deg, 30deg)"
param **.ueD2DTx[*].mobility.changeInterval "normal(5s, 0.1s)"
param **.ueD2DTx[*].mobility.nodeId -1
param **.ueD2DTx[*].mobility.speed "normal(2mps, 0.01mps)"
param **.ueD2DTx[*].mobility.traceFile "${mob=\"./movements/RWPRPGM-0.0.movements\",\"./movements/RWPRPGM-0.5.movements\"}"
param **.ueD2DTx[*].mobilityType "\"BonnMotionMobility\""
param **.usePreconfiguredTxParams false
param *.eNodeB.d2dCapable false
param *.eNodeB.mobility.initFromDisplayString false
param *.eNodeB.mobility.initialX 300m
param *.eNodeB.mobility.initialY 300m
param *.eNodeB.nic.phy.enableD2DCqiReporting true
param *.eNodeB.txPower 19952.62315mw
param *.numUeCell 0
param *.numUeD2DRx 1
param *.numUeD2DTx 1
param *.ue*.macCellId 1
param *.ue*.masterId 1
param *.ue*.mobility.initFromDisplayString false
param *.ue*[0].macCellId 1
param *.ue*[0].masterId 1
param *.ue*[0].mobility.initFromDisplayString false
param *.ueD2D*.numTcpApps 1
param *.ueD2D*[*].d2dCapable true
param *.ueD2D*[0].d2dCapable false
param *.ueD2D*[0].numTcpApps 1
param *.ueD2DRx[0].mobility.initialX 310m
param *.ueD2DRx[0].mobility.initialY 350m
param *.ueD2DRx[0].tcpApp[*].localPort 1000
param *.ueD2DRx[0].tcpApp[*].typename "\"TCPSinkApp\""
param *.ueD2DTx*.tcpApp[*].connectAddress "\"ueD2DTx[0]\""
param *.ueD2DTx*.tcpApp[*].localAddress "\"ueD2DTx\""
param *.ueD2DTx*.tcpApp[*].localPort 1000
param *.ueD2DTx*.tcpApp[*].sendBytes 1GiB
param *.ueD2DTx*.tcpApp[*].typename "\"TCPSessionApp\""
param *.ueD2DTx*.tcpApp[0].active true
param *.ueD2DTx*.tcpApp[0].connectPort 1000
param *.ueD2DTx*.tcpApp[0].tOpen uniform(0.010s,0.1s)
param *.ueD2DTx*.tcpApp[0].tSend uniform(0.15s,0.5s)
param *.ueD2DTx[0].mobility.initialX 290m
param *.ueD2DTx[0].mobility.initialY 350m
param *.ueD2DTx[0].nic.d2dPeerAddresses "\"ueD2DTx[1]\""
param *.ueD2DTx[0].tcpApp[*].localPort 1000
param *.ueD2DTx[0].tcpApp[*].sendBytes 1GiB
param *.ueD2DTx[0].tcpApp[*].typename "\"TCPSessionApp\""
param *.ueD2DTx[0].tcpApp[0].active true
param *.ueD2DTx[0].tcpApp[0].connectAddress "\"ueD2DRx[0]\""
param *.ueD2DTx[0].tcpApp[0].connectPort 1000
param *.ueD2DTx[0].tcpApp[0].localAddress "\"ueD2DTx[0]\""
param *.ueD2DTx[0].tcpApp[0].tOpen uniform(0.010s,0.1s)
param *.ueD2DTx[0].tcpApp[0].tSend uniform(0.15s,0.5s)
param *.ueD2DTx[1].nic.d2dPeerAddresses "\"ueD2DTx[0]\""

vector 8  CAIN.server.ppp[0].queue  queueLength:vector  ETV
attr interpolationmode  sample-hold
attr title  "queue length, vector"
vector 9  CAIN.server.ppp[0].ppp  txState:vector  ETV
attr interpolationmode  sample-hold
attr title  "tx state, vector"
vector 24  CAIN.router.ppp[0].queue  queueLength:vector  ETV
attr interpolationmode  sample-hold
attr title  "queue length, vector"
vector 25  CAIN.router.ppp[0].ppp  txState:vector  ETV
attr interpolationmode  sample-hold
attr title  "tx state, vector"
vector 35  CAIN.router.ppp[1].queue  queueLength:vector  ETV
attr interpolationmode  sample-hold
attr title  "queue length, vector"
vector 36  CAIN.router.ppp[1].ppp  txState:vector  ETV
attr interpolationmode  sample-hold
attr title  "tx state, vector"
vector 56  CAIN.pgw.ppp[0].queue  queueLength:vector  ETV
attr interpolationmode  sample-hold
attr title  "queue length, vector"
vector 57  CAIN.pgw.ppp[0].ppp  txState:vector  ETV
attr interpolationmode  sample-hold
attr title  "tx state, vector"
vector 67  CAIN.pgw.pppInterface.queue  queueLength:vector  ETV
attr interpolationmode  sample-hold
attr title  "queue length, vector"
vector 68  CAIN.pgw.pppInterface.ppp  txState:vector  ETV
attr interpolationmode  sample-hold
attr title  "tx state, vector"
vector 104  CAIN.eNodeB.pppIf.queue  queueLength:vector  ETV
attr interpolationmode  sample-hold
attr title  "queue length, vector"
vector 105  CAIN.eNodeB.pppIf.ppp  txState:vector  ETV
attr interpolationmode  sample-hold
attr title  "tx state, vector"
vector 138  CAIN.ueD2DTx[0].nic.phy  servingCell:vector  ETV
attr source  servingCell
attr title  "ID of the serving eNodeB for the UE, vector"
attr unit  ""
vector 165  CAIN.ueD2DTx[1].nic.phy  servingCell:vector  ETV
attr source  servingCell
attr title  "ID of the serving eNodeB for the UE, vector"
attr unit  ""
vector 192  CAIN.ueD2DTx[2].nic.phy  servingCell:vector  ETV
attr source  servingCell
attr title  "ID of the serving eNodeB for the UE, vector"
attr unit  ""
vector 219  CAIN.ueD2DTx[3].nic.phy  servingCell:vector  ETV
attr source  servingCell
attr title  "ID of the serving eNodeB for the UE, vector"
attr unit  ""
vector 246  CAIN.ueD2DTx[4].nic.phy  servingCell:vector  ETV
attr source  servingCell
attr title  "ID of the serving eNodeB for the UE, vector"
attr unit  ""
vector 85  CAIN.eNodeB.nic.mac  receivedPacketFromLowerLayer:vector(packetBytes)  ETV
attr interpolationmode  none
attr source  receivedPacketFromLowerLayer
vector 264  CAIN.ueD2DTx[3].tcp  tcpRcvQueueBytes  ETV
vector 251  CAIN.ueD2DTx[3].tcp  "advertised window"  ETV
vector 250  CAIN.ueD2DTx[3].tcp  "receive window"  ETV
vector 253  CAIN.ueD2DTx[3].tcp  "sent ack"  ETV
vector 198  CAIN.ueD2DTx[3].nic.pdcpRrc  receivedPacketFromUpperLayer:vector(packetBytes)  ETV
attr interpolationmode  none
attr source  receivedPacketFromUpperLayer
vector 201  CAIN.ueD2DTx[3].nic.pdcpRrc  sentPacketToLowerLayer:vector(packetBytes)  ETV
attr interpolationmode  none
attr source  sentPacketToLowerLayer
vector 202  CAIN.ueD2DTx[3].nic.mac  receivedPacketFromUpperLayer:vector(packetBytes)  ETV
attr interpolationmode  none
attr source  receivedPacketFromUpperLayer
vector 205  CAIN.ueD2DTx[3].nic.mac  sentPacketToLowerLayer:vector(packetBytes)  ETV
attr interpolationmode  none
attr source  sentPacketToLowerLayer
vector 96  CAIN.eNodeB.nic.mac  racpkt:vector  ETV
attr interpolationmode  none
attr title  "eNB received racpkt message, vector"
vector 97  CAIN.eNodeB.nic.mac  racDistanceSignal:vector  ETV
attr interpolationmode  none
attr title  "Rac distance to enb, vector"
vector 87  CAIN.eNodeB.nic.mac  sentPacketToLowerLayer:vector(packetBytes)  ETV
attr interpolationmode  none
attr source  sentPacketToLowerLayer
vector 149  CAIN.ueD2DTx[1].nic.mac  receivedPacketFromLowerLayer:vector(packetBytes)  ETV
attr interpolationmode  none
attr source  receivedPacketFromLowerLayer
vector 160  CAIN.ueD2DTx[1].nic.mac  racpkt:vector  ETV
attr interpolationmode  none
attr title  "eNB received racpkt message, vector"
vector 161  CAIN.ueD2DTx[1].nic.mac  racDistanceSignal:vector  ETV
attr interpolationmode  none
attr title  "Rac distance to enb, vector"
vector 151  CAIN.ueD2DTx[1].nic.mac  sentPacketToLowerLayer:vector(packetBytes)  ETV
attr interpolationmode  none
attr source  sentPacketToLowerLayer
vector 176  CAIN.ueD2DTx[2].nic.mac  receivedPacketFromLowerLayer:vector(packetBytes)  ETV
attr interpolationmode  none
attr source  receivedPacketFromLowerLayer
vector 187  CAIN.ueD2DTx[2].nic.mac  racpkt:vector  ETV
attr interpolationmode  none
attr title  "eNB received racpkt message, vector"
vector 188  CAIN.ueD2DTx[2].nic.mac  racDistanceSignal:vector  ETV
attr interpolationmode  none
attr title  "Rac distance to enb, vector"
vector 178  CAIN.ueD2DTx[2].nic.mac  sentPacketToLowerLayer:vector(packetBytes)  ETV
attr interpolationmode  none
attr source  sentPacketToLowerLayer
vector 203  CAIN.ueD2DTx[3].nic.mac  receivedPacketFromLowerLayer:vector(packetBytes)  ETV
attr interpolationmode  none
attr source  receivedPacketFromLowerLayer
vector 122  CAIN.ueD2DTx[0].nic.mac  receivedPacketFromLowerLayer:vector(packetBytes)  ETV
attr interpolationmode  none
attr source  receivedPacketFromLowerLayer
vector 133  CAIN.ueD2DTx[0].nic.mac  racpkt:vector  ETV
attr interpolationmode  none
attr title  "eNB received racpkt message, vector"
vector 134  CAIN.ueD2DTx[0].nic.mac  racDistanceSignal:vector  ETV
attr interpolationmode  none
attr title  "Rac distance to enb, vector"
vector 124  CAIN.ueD2DTx[0].nic.mac  sentPacketToLowerLayer:vector(packetBytes)  ETV
attr interpolationmode  none
attr source  sentPacketToLowerLayer
vector 214  CAIN.ueD2DTx[3].nic.mac  racpkt:vector  ETV
attr interpolationmode  none
attr title  "eNB received racpkt message, vector"
vector 215  CAIN.ueD2DTx[3].nic.mac  racDistanceSignal:vector  ETV
attr interpolationmode  none
attr title  "Rac distance to enb, vector"
vector 288  CAIN.ueD2DTx[2].tcp  tcpRcvQueueBytes  ETV
vector 275  CAIN.ueD2DTx[2].tcp  "advertised window"  ETV
vector 274  CAIN.ueD2DTx[2].tcp  "receive window"  ETV
vector 277  CAIN.ueD2DTx[2].tcp  "sent ack"  ETV
vector 171  CAIN.ueD2DTx[2].nic.pdcpRrc  receivedPacketFromUpperLayer:vector(packetBytes)  ETV
attr interpolationmode  none
attr source  receivedPacketFromUpperLayer
vector 174  CAIN.ueD2DTx[2].nic.pdcpRrc  sentPacketToLowerLayer:vector(packetBytes)  ETV
attr interpolationmode  none
attr source  sentPacketToLowerLayer
vector 175  CAIN.ueD2DTx[2].nic.mac  receivedPacketFromUpperLayer:vector(packetBytes)  ETV
attr interpolationmode  none
attr source  receivedPacketFromUpperLayer
vector 204  CAIN.ueD2DTx[3].nic.mac  sentPacketToUpperLayer:vector(packetBytes)  ETV
attr interpolationmode  none
attr source  sentPacketToUpperLayer
vector 230  CAIN.ueD2DTx[4].nic.mac  receivedPacketFromLowerLayer:vector(packetBytes)  ETV
attr interpolationmode  none
attr source  receivedPacketFromLowerLayer
vector 241  CAIN.ueD2DTx[4].nic.mac  racpkt:vector  ETV
attr interpolationmode  none
attr title  "eNB received racpkt message, vector"
vector 242  CAIN.ueD2DTx[4].nic.mac  racDistanceSignal:vector  ETV
attr interpolationmode  none
attr title  "Rac distance to enb, vector"
vector 232  CAIN.ueD2DTx[4].nic.mac  sentPacketToLowerLayer:vector(packetBytes)  ETV
attr interpolationmode  none
attr source  sentPacketToLowerLayer
vector 99  CAIN.eNodeB.nic.phy  averageCqiUlvect:vector  ETV
attr source  averageCqiUlvect
attr title  "Average Cqi reported in UL, vector"
attr unit  cqi
vector 93  CAIN.eNodeB.nic.mac  ServedDevs:vector  ETV
attr interpolationmode  none
attr title  "# of devices served on cain forwarding, vector"
vector 91  CAIN.eNodeB.nic.mac  DistanceSignal:vector  ETV
attr interpolationmode  none
attr title  "Distance to enb, vector"
vector 89  CAIN.eNodeB.nic.mac  CainMessage:vector  ETV
attr interpolationmode  none
attr title  "eNB received CAIN message, vector"
vector 312  CAIN.ueD2DTx[1].tcp  tcpRcvQueueBytes  ETV
vector 299  CAIN.ueD2DTx[1].tcp  "advertised window"  ETV
vector 298  CAIN.ueD2DTx[1].tcp  "receive window"  ETV
vector 301  CAIN.ueD2DTx[1].tcp  "sent ack"  ETV
vector 144  CAIN.ueD2DTx[1].nic.pdcpRrc  receivedPacketFromUpperLayer:vector(packetBytes)  ETV
attr interpolationmode  none
attr source  receivedPacketFromUpperLayer
vector 147  CAIN.ueD2DTx[1].nic.pdcpRrc  sentPacketToLowerLayer:vector(packetBytes)  ETV
attr interpolationmode  none
attr source  sentPacketToLowerLayer
vector 148  CAIN.ueD2DTx[1].nic.mac  receivedPacketFromUpperLayer:vector(packetBytes)  ETV
attr interpolationmode  none
attr source  receivedPacketFromUpperLayer
vector 92  CAIN.eNodeB.nic.mac  HopDistanceSignal:vector  ETV
attr interpolationmode  none
attr title  "Distance to enb with hop forwarding, vector"
vector 90  CAIN.eNodeB.nic.mac  CainHopMessage:vector  ETV
attr interpolationmode  none
attr title  "eNB received CAIN hop message, vector"
vector 86  CAIN.eNodeB.nic.mac  sentPacketToUpperLayer:vector(packetBytes)  ETV
attr interpolationmode  none
attr source  sentPacketToUpperLayer
vector 81  CAIN.eNodeB.nic.pdcpRrc  receivedPacketFromLowerLayer:vector(packetBytes)  ETV
attr interpolationmode  none
attr source  receivedPacketFromLowerLayer
vector 82  CAIN.eNodeB.nic.pdcpRrc  sentPacketToUpperLayer:vector(packetBytes)  ETV
attr interpolationmode  none
attr source  sentPacketToUpperLayer
vector 80  CAIN.eNodeB.nic.pdcpRrc  receivedPacketFromUpperLayer:vector(packetBytes)  ETV
attr interpolationmode  none
attr source  receivedPacketFromUpperLayer
vector 83  CAIN.eNodeB.nic.pdcpRrc  sentPacketToLowerLayer:vector(packetBytes)  ETV
attr interpolationmode  none
attr source  sentPacketToLowerLayer
vector 84  CAIN.eNodeB.nic.mac  receivedPacketFromUpperLayer:vector(packetBytes)  ETV
attr interpolationmode  none
attr source  receivedPacketFromUpperLayer
vector 177  CAIN.ueD2DTx[2].nic.mac  sentPacketToUpperLayer:vector(packetBytes)  ETV
attr interpolationmode  none
attr source  sentPacketToUpperLayer
vector 88  CAIN.eNodeB.nic.mac  measuredItbs:vector  ETV
attr source  measuredItbs
attr title  "TBS index, vector"
attr unit  ""
vector 135  CAIN.ueD2DTx[0].nic.phy  averageCqiDlvect:vector  ETV
attr source  averageCqiDlvect
attr title  "Average Cqi reported in DL, vector"
attr unit  cqi
vector 123  CAIN.ueD2DTx[0].nic.mac  sentPacketToUpperLayer:vector(packetBytes)  ETV
attr interpolationmode  none
attr source  sentPacketToUpperLayer
vector 118  CAIN.ueD2DTx[0].nic.pdcpRrc  receivedPacketFromLowerLayer:vector(packetBytes)  ETV
attr interpolationmode  none
attr source  receivedPacketFromLowerLayer
vector 119  CAIN.ueD2DTx[0].nic.pdcpRrc  sentPacketToUpperLayer:vector(packetBytes)  ETV
attr interpolationmode  none
attr source  sentPacketToUpperLayer
vector 216  CAIN.ueD2DTx[3].nic.phy  averageCqiDlvect:vector  ETV
attr source  averageCqiDlvect
attr title  "Average Cqi reported in DL, vector"
attr unit  cqi
vector 336  CAIN.ueD2DTx[4].tcp  tcpRcvQueueBytes  ETV
vector 323  CAIN.ueD2DTx[4].tcp  "advertised window"  ETV
vector 322  CAIN.ueD2DTx[4].tcp  "receive window"  ETV
vector 325  CAIN.ueD2DTx[4].tcp  "sent ack"  ETV
vector 225  CAIN.ueD2DTx[4].nic.pdcpRrc  receivedPacketFromUpperLayer:vector(packetBytes)  ETV
attr interpolationmode  none
attr source  receivedPacketFromUpperLayer
vector 228  CAIN.ueD2DTx[4].nic.pdcpRrc  sentPacketToLowerLayer:vector(packetBytes)  ETV
attr interpolationmode  none
attr source  sentPacketToLowerLayer
vector 229  CAIN.ueD2DTx[4].nic.mac  receivedPacketFromUpperLayer:vector(packetBytes)  ETV
attr interpolationmode  none
attr source  receivedPacketFromUpperLayer
vector 199  CAIN.ueD2DTx[3].nic.pdcpRrc  receivedPacketFromLowerLayer:vector(packetBytes)  ETV
attr interpolationmode  none
attr source  receivedPacketFromLowerLayer
vector 200  CAIN.ueD2DTx[3].nic.pdcpRrc  sentPacketToUpperLayer:vector(packetBytes)  ETV
attr interpolationmode  none
attr source  sentPacketToUpperLayer
vector 231  CAIN.ueD2DTx[4].nic.mac  sentPacketToUpperLayer:vector(packetBytes)  ETV
attr interpolationmode  none
attr source  sentPacketToUpperLayer
vector 360  CAIN.ueD2DTx[0].tcp  tcpRcvQueueBytes  ETV
vector 347  CAIN.ueD2DTx[0].tcp  "advertised window"  ETV
vector 346  CAIN.ueD2DTx[0].tcp  "receive window"  ETV
vector 349  CAIN.ueD2DTx[0].tcp  "sent ack"  ETV
vector 117  CAIN.ueD2DTx[0].nic.pdcpRrc  receivedPacketFromUpperLayer:vector(packetBytes)  ETV
attr interpolationmode  none
attr source  receivedPacketFromUpperLayer
vector 120  CAIN.ueD2DTx[0].nic.pdcpRrc  sentPacketToLowerLayer:vector(packetBytes)  ETV
attr interpolationmode  none
attr source  sentPacketToLowerLayer
vector 121  CAIN.ueD2DTx[0].nic.mac  receivedPacketFromUpperLayer:vector(packetBytes)  ETV
attr interpolationmode  none
attr source  receivedPacketFromUpperLayer
vector 189  CAIN.ueD2DTx[2].nic.phy  averageCqiDlvect:vector  ETV
attr source  averageCqiDlvect
attr title  "Average Cqi reported in DL, vector"
attr unit  cqi
vector 172  CAIN.ueD2DTx[2].nic.pdcpRrc  receivedPacketFromLowerLayer:vector(packetBytes)  ETV
attr interpolationmode  none
attr source  receivedPacketFromLowerLayer
vector 173  CAIN.ueD2DTx[2].nic.pdcpRrc  sentPacketToUpperLayer:vector(packetBytes)  ETV
attr interpolationmode  none
attr source  sentPacketToUpperLayer
8	17109 8 0 0 0 0 1 0 0 0 0
9	17117 8 0 0 0 0 1 0 0 0 0
24	17125 9 0 0 0 0 1 0 0 0 0
25	17134 9 0 0 0 0 1 0 0 0 0
35	17143 9 0 0 0 0 1 0 0 0 0
36	17152 9 0 0 0 0 1 0 0 0 0
56	17161 9 0 0 0 0 1 0 0 0 0
57	17170 9 0 0 0 0 1 0 0 0 0
67	17179 9 0 0 0 0 1 0 0 0 0
68	17188 9 0 0 0 0 1 0 0 0 0
80	17197 210 413 232400 0.02 9.105 12 44 44 528 23232
81	17407 210 408 232395 0.02 9.105 12 45 45 540 24300
82	17617 210 408 232395 0.02 9.105 12 44 44 528 23232
83	17827 210 413 232400 0.02 9.105 12 45 45 540 24300
84	18037 425 416 232424 0.02 9.106 24 45 47 1104 50808
85	18462 362581 60 251602 0.002 10 20848 0 0 0 0
86	381043 412 403 232420 0.02 9.106 24 0 47 564 26508
87	381455 147795 186 251585 0.013 10 8499 0 0 0 0
88	529250 214 471 232420 0.021 9.106 12 26 26 312 8112
89	529464 212832 309 251602 0.017 10 10480 1 10480 54920440 383729114280
90	742296 63363 400 251602 0.019 10 3232 1 3232 5224528 11258857840
91	805659 141740 309 251565 0.017 9.998 7248 149 424 2224152 806305012
92	947399 61238 400 251602 0.019 10 3232 221 224 717025 159075173
93	1008637 127244 309 251565 0.017 9.998 7248 1 3 21730 65164
96	1135881 104743 186 251602 0.013 10 5241 1 5241 13736661 48000472421
97	1240624 95377 186 251602 0.013 10 5241 44 223 286893 17377103
99	1336001 213 303 232316 0.017 9.102 12 15 15 180 2700
104	1336214 10 0 0 0 0 1 0 0 0 0
105	1336224 10 0 0 0 0 1 0 0 0 0
117	1336234 84 2721 232143 0.096955975448 9.096955975448 3 44 44 132 5808
118	1336318 110 630 230923 0.025 9.04 6 45 45 270 12150
119	1336428 110 630 230923 0.025 9.04 6 44 44 264 11616
120	1336538 84 2721 232143 0.096955975448 9.096955975448 3 45 45 135 6075
121	1336622 141 2724 232269 0.096955975448 9.101 6 45 47 276 12702
122	1336763 179574 233 251558 0.015 9.998 9708 0 0 0 0
123	1516337 164 626 232265 0.025 9.101 9 0 47 282 13254
124	1516501 179577 233 251558 0.015 9.998 9708 0 0 0 0
133	1696078 207346 233 251558 0.015 9.998 9696 1 9696 47011056 303895136336
134	1903424 192293 233 251558 0.015 9.998 9696 44 224 1106962 185062808
135	2095717 113 529 230862 0.022 9.037 6 15 15 90 1350
138	2095830 10 0 0 0 0 1 1 1 1 1
144	2095840 80 323 230230 0.01731147605 9.01731147605 3 44 44 132 5808
147	2095920 80 323 230230 0.01731147605 9.01731147605 3 45 45 135 6075
148	2096000 80 326 230233 0.01731147605 9.01731147605 3 45 45 135 6075
149	2096080 236542 210 251597 0.014 10 12822 0 0 0 0
151	2332622 287281 210 251597 0.014 10 15617 0 0 0 0
160	2619903 231609 210 251597 0.014 10 10826 1 10826 58606551 423002549601
161	2851512 212243 210 251597 0.014 10 10826 0 169 1045519 164942485
165	3063755 10 0 0 0 0 1 1 1 1 1
171	3063765 83 254 230148 0.015964635157 9.015964635157 3 44 44 132 5808
172	3063848 54 3203 232521 0.11 9.11 3 45 45 135 6075
173	3063902 54 3203 232521 0.11 9.11 3 44 44 132 5808
174	3063956 83 254 230148 0.015964635157 9.015964635157 3 45 45 135 6075
175	3064039 136 257 230323 0.015964635157 9.02 6 45 47 276 12702
176	3064175 125944 217 251509 0.014 9.996 6913 0 0 0 0
177	3190119 104 419 232517 0.02 9.11 6 0 47 141 6627
178	3190223 147707 217 251509 0.014 9.996 8137 0 0 0 0
187	3337930 145389 217 251509 0.014 9.996 6904 1 6904 23836060 109717384180
188	3483319 133912 217 251509 0.014 9.996 6904 0 169 632192 98703766
189	3617231 57 3124 232456 0.107 9.107 3 15 15 45 675
192	3617288 10 0 0 0 0 1 1 1 1 1
198	3617298 83 156 230024 0.011371313683 9.011371313683 3 44 44 132 5808
199	3617381 56 750 230605 0.029 9.029 3 45 45 135 6075
200	3617437 56 750 230605 0.029 9.029 3 44 44 132 5808
201	3617493 83 156 230024 0.011371313683 9.011371313683 3 45 45 135 6075
202	3617576 139 159 230161 0.011371313683 9.016 6 45 47 276 12702
203	3617715 59942 231 251506 0.015 9.996 3241 0 0 0 0
204	3677657 109 263 230601 0.016 9.029 6 0 47 141 6627
205	3677766 59942 169 251506 0.012 9.996 3241 0 0 0 0
214	3737708 68372 236 251506 0.015 9.996 3232 1 3232 5224528 11258857840
215	3806080 63015 236 251506 0.015 9.996 3232 44 86 194966 12992706
216	3869095 56 675 230533 0.026 9.026 3 15 15 45 675
219	3869151 10 0 0 0 0 1 1 1 1 1
225	3869161 83 693 230550 0.026041829563 9.026041829563 3 44 44 132 5808
228	3869244 83 693 230550 0.026041829563 9.026041829563 3 45 45 135 6075
229	3869327 139 696 230679 0.026041829563 9.031 6 45 47 276 12702
230	3869466 59897 273 251528 0.016 9.997 3238 0 0 0 0
231	3929363 53 840 230675 0.031 9.031 3 0 0 0 0
232	3929416 59899 273 251528 0.016 9.997 3238 0 0 0 0
241	3989315 68382 273 251528 0.016 9.997 3232 1 3232 5224528 11258857840
242	4057697 66257 273 251528 0.016 9.997 3232 167 169 542650 91111556
246	4123954 10 0 0 0 0 1 1 1 1 1
250	4123964 89 153 230021 0.011371313683 9.011371313683 3 7504 7504 22512 168930048
251	4124053 89 153 230021 0.011371313683 9.011371313683 3 7504 7504 22512 168930048
253	4124142 80 153 230021 0.011371313683 9.011371313683 3 0 0 0 0
264	4124222 80 153 230021 0.011371313683 9.011371313683 3 0 0 0 0
274	4124302 89 251 230145 0.015964635157 9.015964635157 3 7504 7504 22512 168930048
275	4124391 89 251 230145 0.015964635157 9.015964635157 3 7504 7504 22512 168930048
277	4124480 80 251 230145 0.015964635157 9.015964635157 3 0 0 0 0
288	4124560 80 251 230145 0.015964635157 9.015964635157 3 0 0 0 0
298	4124640 86 320 230227 0.01731147605 9.01731147605 3 7504 7504 22512 168930048
299	4124726 86 320 230227 0.01731147605 9.01731147605 3 7504 7504 22512 168930048
301	4124812 77 320 230227 0.01731147605 9.01731147605 3 0 0 0 0
312	4124889 77 320 230227 0.01731147605 9.01731147605 3 0 0 0 0
322	4124966 89 690 230547 0.026041829563 9.026041829563 3 7504 7504 22512 168930048
323	4125055 89 690 230547 0.026041829563 9.026041829563 3 7504 7504 22512 168930048
325	4125144 80 690 230547 0.026041829563 9.026041829563 3 0 0 0 0
336	4125224 80 690 230547 0.026041829563 9.026041829563 3 0 0 0 0
346	4125304 90 2718 232140 0.096955975448 9.096955975448 3 7504 7504 22512 168930048
347	4125394 90 2718 232140 0.096955975448 9.096955975448 3 7504 7504 22512 168930048
349	4125484 81 2718 232140 0.096955975448 9.096955975448 3 0 0 0 0
360	4125565 81 2718 232140 0.096955975448 9.096955975448 3 0 0 0 0
