file 8732111 1589561488                                         
version 2
run CAIN-11-20200515-13:45:52-15861
attr configname CAIN
attr datetime 20200515-13:45:52
attr dist 200
attr experiment CAIN
attr inifile omnetpp.ini
attr iterationvars "$numUe=20, $pwr=-50, $dist=200, $mob=\"./movements/RPGM-0.0.movements\""
attr iterationvars2 "$numUe=20, $pwr=-50, $dist=200, $mob=\"./movements/RPGM-0.0.movements\", $repetition=1"
attr measurement "$numUe=20, $pwr=-50, $dist=200, $mob=\"./movements/RPGM-0.0.movements\""
attr mob "\"./movements/RPGM-0.0.movements\""
attr network lte.simulations.networks.CAIN
attr numUe 20
attr processid 15861
attr pwr -50
attr repetition 1
attr replication #1
attr resultdir results
attr runnumber 11
attr seedset 1
param **.**.amcMode "\"AUTO\""
param **.amcMode "\"D2D\""
param **.cainNetwork true
param **.channelControl.alpha 1.0
param **.channelControl.carrierFrequency 2100e+6Hz
param **.channelControl.pMax 10W
param **.d2dCqi 7
param **.deployer.numRbDl 50
param **.deployer.numRbUl 50
param **.distThresh ${dist=200}
param **.fbDelay 1
param **.feedbackComputation "xmldoc(\"config_channel.xml\")"
param **.mobility.constraintAreaMaxX 1000m
param **.mobility.constraintAreaMaxY 1000m
param **.mobility.constraintAreaMaxZ 0m
param **.mobility.constraintAreaMinX 0m
param **.mobility.constraintAreaMinY 0m
param **.mobility.constraintAreaMinZ 0m
param **.nic.phy.channelModel "xmldoc(\"config_channel.xml\")"
param **.numBands 50
param **.pwrThresh "${pwr= -50}"
param **.qtdThresh 3
param **.rbAllocationType "\"localized\""
param **.routingRecorder.enabled false
param **.tcpApp[*].tClose -1s
param **.ueD2DTx[*].mobility.changeAngleBy "normal(0deg, 30deg)"
param **.ueD2DTx[*].mobility.changeInterval "normal(5s, 0.1s)"
param **.ueD2DTx[*].mobility.nodeId -1
param **.ueD2DTx[*].mobility.speed "normal(2mps, 0.01mps)"
param **.ueD2DTx[*].mobility.traceFile "${mob=\"./movements/RWP-0.0.movements\",\"./movements/RWP-0.5.movements\",\"./movements/RPGM-0.0.movements\",\"./movements/RPGM-0.5.movements\",\"./movements/RWPRPGM-0.0.movements\",\"./movements/RWPRPGM-0.5.movements\"}"
param **.ueD2DTx[*].mobilityType "\"BonnMotionMobility\""
param **.usePreconfiguredTxParams false
param *.eNodeB*.numX2Apps 1
param *.eNodeB*.x2App[*].server.localPort "5000 + ancestorIndex(1)"
param *.eNodeB.d2dCapable false
param *.eNodeB.mobility.initFromDisplayString false
param *.eNodeB.mobility.initialX 300m
param *.eNodeB.mobility.initialY 300m
param *.eNodeB.nic.phy.enableD2DCqiReporting true
param *.eNodeB.txPower 19952.62315mw
param *.eNodeB.x2App[0].client.connectAddress "\"eNodeB1%x2ppp0\""
param *.eNodeB1.d2dCapable true
param *.eNodeB1.mobility.initFromDisplayString false
param *.eNodeB1.mobility.initialX 700m
param *.eNodeB1.mobility.initialY 300m
param *.eNodeB1.nic.phy.enableD2DCqiReporting true
param *.eNodeB1.txPower 19952.62315mw
param *.eNodeB1.x2App[0].client.connectAddress "\"eNodeB%x2ppp0\""
param *.extCell[*].bandAllocationType "\"FULL_ALLOC\""
param *.extCell[*].bandUtilization 0.5
param *.extCell[*].txDirection "\"ANISOTROPIC\""
param *.extCell[*].txPower 20
param *.extCell[0].position_x 100m
param *.extCell[0].position_y 600m
param *.extCell[0].txAngle 315
param *.extCell[1].position_x 600m
param *.extCell[1].position_y 600m
param *.extCell[1].txAngle 225
param *.numExtCells 2
param *.numUeCell 0
param *.numUeD2DRx 1
param *.numUeD2DTx 1
param *.ue*.macCellId 1
param *.ue*.masterId 1
param *.ue*.mobility.initFromDisplayString false
param *.ue*[0].macCellId 1
param *.ue*[0].masterId 1
param *.ue*[0].mobility.initFromDisplayString false
param *.ueD2D*.numTcpApps 1
param *.ueD2D*[*].d2dCapable true
param *.ueD2D*[0].d2dCapable false
param *.ueD2D*[0].numTcpApps 1
param *.ueD2DRx[0].mobility.initialX 310m
param *.ueD2DRx[0].mobility.initialY 350m
param *.ueD2DRx[0].tcpApp[*].localPort 1000
param *.ueD2DRx[0].tcpApp[*].typename "\"TCPSinkApp\""
param *.ueD2DTx*.nic.d2dPeerAddresses "\"ueD2DTx[1]\""
param *.ueD2DTx*.tcpApp[*].connectAddress "\"ueD2DTx[0]\""
param *.ueD2DTx*.tcpApp[*].localAddress "\"ueD2DTx\""
param *.ueD2DTx*.tcpApp[*].localPort 1000
param *.ueD2DTx*.tcpApp[*].sendBytes 1GiB
param *.ueD2DTx*.tcpApp[*].typename "\"TCPSessionApp\""
param *.ueD2DTx*.tcpApp[0].active true
param *.ueD2DTx*.tcpApp[0].connectPort 1000
param *.ueD2DTx*.tcpApp[0].tOpen uniform(0.010s,0.1s)
param *.ueD2DTx*.tcpApp[0].tSend uniform(0.15s,0.5s)
param *.ueD2DTx[0].mobility.initialX 290m
param *.ueD2DTx[0].mobility.initialY 350m
param *.ueD2DTx[0].tcpApp[*].localPort 1000
param *.ueD2DTx[0].tcpApp[*].sendBytes 1GiB
param *.ueD2DTx[0].tcpApp[*].typename "\"TCPSessionApp\""
param *.ueD2DTx[0].tcpApp[0].active true
param *.ueD2DTx[0].tcpApp[0].connectAddress "\"ueD2DRx[0]\""
param *.ueD2DTx[0].tcpApp[0].connectPort 1000
param *.ueD2DTx[0].tcpApp[0].localAddress "\"ueD2DTx[0]\""
param *.ueD2DTx[0].tcpApp[0].tOpen uniform(0.010s,0.1s)
param *.ueD2DTx[0].tcpApp[0].tSend uniform(0.15s,0.5s)

vector 8  CAIN.server.ppp[0].queue  queueLength:vector  ETV
attr interpolationmode  sample-hold
attr title  "queue length, vector"
vector 9  CAIN.server.ppp[0].ppp  txState:vector  ETV
attr interpolationmode  sample-hold
attr title  "tx state, vector"
vector 24  CAIN.router.ppp[0].queue  queueLength:vector  ETV
attr interpolationmode  sample-hold
attr title  "queue length, vector"
vector 25  CAIN.router.ppp[0].ppp  txState:vector  ETV
attr interpolationmode  sample-hold
attr title  "tx state, vector"
vector 35  CAIN.router.ppp[1].queue  queueLength:vector  ETV
attr interpolationmode  sample-hold
attr title  "queue length, vector"
vector 36  CAIN.router.ppp[1].ppp  txState:vector  ETV
attr interpolationmode  sample-hold
attr title  "tx state, vector"
vector 56  CAIN.pgw.ppp[0].queue  queueLength:vector  ETV
attr interpolationmode  sample-hold
attr title  "queue length, vector"
vector 57  CAIN.pgw.ppp[0].ppp  txState:vector  ETV
attr interpolationmode  sample-hold
attr title  "tx state, vector"
vector 67  CAIN.pgw.ppp[1].queue  queueLength:vector  ETV
attr interpolationmode  sample-hold
attr title  "queue length, vector"
vector 68  CAIN.pgw.ppp[1].ppp  txState:vector  ETV
attr interpolationmode  sample-hold
attr title  "tx state, vector"
vector 78  CAIN.pgw.pppInterface.queue  queueLength:vector  ETV
attr interpolationmode  sample-hold
attr title  "queue length, vector"
vector 79  CAIN.pgw.pppInterface.ppp  txState:vector  ETV
attr interpolationmode  sample-hold
attr title  "tx state, vector"
vector 120  CAIN.eNodeB.pppIf.queue  queueLength:vector  ETV
attr interpolationmode  sample-hold
attr title  "queue length, vector"
vector 121  CAIN.eNodeB.pppIf.ppp  txState:vector  ETV
attr interpolationmode  sample-hold
attr title  "tx state, vector"
vector 131  CAIN.eNodeB.x2ppp[0].queue  queueLength:vector  ETV
attr interpolationmode  sample-hold
attr title  "queue length, vector"
vector 132  CAIN.eNodeB.x2ppp[0].ppp  txState:vector  ETV
attr interpolationmode  sample-hold
attr title  "tx state, vector"
vector 178  CAIN.eNodeB1.pppIf.queue  queueLength:vector  ETV
attr interpolationmode  sample-hold
attr title  "queue length, vector"
vector 179  CAIN.eNodeB1.pppIf.ppp  txState:vector  ETV
attr interpolationmode  sample-hold
attr title  "tx state, vector"
vector 189  CAIN.eNodeB1.x2ppp[0].queue  queueLength:vector  ETV
attr interpolationmode  sample-hold
attr title  "queue length, vector"
vector 190  CAIN.eNodeB1.x2ppp[0].ppp  txState:vector  ETV
attr interpolationmode  sample-hold
attr title  "tx state, vector"
vector 231  CAIN.ueD2DTx[0].nic.phy  servingCell:vector  ETV
attr source  servingCell
attr title  "ID of the serving eNodeB for the UE, vector"
attr unit  ""
vector 263  CAIN.ueD2DTx[1].nic.phy  servingCell:vector  ETV
attr source  servingCell
attr title  "ID of the serving eNodeB for the UE, vector"
attr unit  ""
vector 295  CAIN.ueD2DTx[2].nic.phy  servingCell:vector  ETV
attr source  servingCell
attr title  "ID of the serving eNodeB for the UE, vector"
attr unit  ""
vector 327  CAIN.ueD2DTx[3].nic.phy  servingCell:vector  ETV
attr source  servingCell
attr title  "ID of the serving eNodeB for the UE, vector"
attr unit  ""
vector 359  CAIN.ueD2DTx[4].nic.phy  servingCell:vector  ETV
attr source  servingCell
attr title  "ID of the serving eNodeB for the UE, vector"
attr unit  ""
vector 391  CAIN.ueD2DTx[5].nic.phy  servingCell:vector  ETV
attr source  servingCell
attr title  "ID of the serving eNodeB for the UE, vector"
attr unit  ""
vector 423  CAIN.ueD2DTx[6].nic.phy  servingCell:vector  ETV
attr source  servingCell
attr title  "ID of the serving eNodeB for the UE, vector"
attr unit  ""
vector 455  CAIN.ueD2DTx[7].nic.phy  servingCell:vector  ETV
attr source  servingCell
attr title  "ID of the serving eNodeB for the UE, vector"
attr unit  ""
vector 487  CAIN.ueD2DTx[8].nic.phy  servingCell:vector  ETV
attr source  servingCell
attr title  "ID of the serving eNodeB for the UE, vector"
attr unit  ""
vector 519  CAIN.ueD2DTx[9].nic.phy  servingCell:vector  ETV
attr source  servingCell
attr title  "ID of the serving eNodeB for the UE, vector"
attr unit  ""
vector 551  CAIN.ueD2DTx[10].nic.phy  servingCell:vector  ETV
attr source  servingCell
attr title  "ID of the serving eNodeB for the UE, vector"
attr unit  ""
vector 583  CAIN.ueD2DTx[11].nic.phy  servingCell:vector  ETV
attr source  servingCell
attr title  "ID of the serving eNodeB for the UE, vector"
attr unit  ""
vector 615  CAIN.ueD2DTx[12].nic.phy  servingCell:vector  ETV
attr source  servingCell
attr title  "ID of the serving eNodeB for the UE, vector"
attr unit  ""
vector 647  CAIN.ueD2DTx[13].nic.phy  servingCell:vector  ETV
attr source  servingCell
attr title  "ID of the serving eNodeB for the UE, vector"
attr unit  ""
vector 679  CAIN.ueD2DTx[14].nic.phy  servingCell:vector  ETV
attr source  servingCell
attr title  "ID of the serving eNodeB for the UE, vector"
attr unit  ""
vector 711  CAIN.ueD2DTx[15].nic.phy  servingCell:vector  ETV
attr source  servingCell
attr title  "ID of the serving eNodeB for the UE, vector"
attr unit  ""
vector 743  CAIN.ueD2DTx[16].nic.phy  servingCell:vector  ETV
attr source  servingCell
attr title  "ID of the serving eNodeB for the UE, vector"
attr unit  ""
vector 775  CAIN.ueD2DTx[17].nic.phy  servingCell:vector  ETV
attr source  servingCell
attr title  "ID of the serving eNodeB for the UE, vector"
attr unit  ""
vector 807  CAIN.ueD2DTx[18].nic.phy  servingCell:vector  ETV
attr source  servingCell
attr title  "ID of the serving eNodeB for the UE, vector"
attr unit  ""
vector 839  CAIN.ueD2DTx[19].nic.phy  servingCell:vector  ETV
attr source  servingCell
attr title  "ID of the serving eNodeB for the UE, vector"
attr unit  ""
vector 863  CAIN.eNodeB.sctp  "Throughput of Association 3"  ETV
vector 885  CAIN.eNodeB1.sctp  "Throughput of Association 4"  ETV
vector 907  CAIN.eNodeB.sctp  "Throughput of Association 1"  ETV
vector 927  CAIN.eNodeB.sctp  "Fast Recovery State 1:10.0.5.2"  ETV
vector 956  CAIN.eNodeB1.sctp  "Throughput of Association 2"  ETV
vector 976  CAIN.eNodeB1.sctp  "Fast Recovery State 2:10.0.5.1"  ETV
vector 128  CAIN.eNodeB.x2ppp[0].queue  rcvdPk:vector(packetBytes)  ETV
attr interpolationmode  none
attr title  "received packets, vector(packetBytes)"
vector 130  CAIN.eNodeB.x2ppp[0].queue  queueingTime:vector  ETV
attr interpolationmode  none
attr title  "queueing time, vector"
vector 186  CAIN.eNodeB1.x2ppp[0].queue  rcvdPk:vector(packetBytes)  ETV
attr interpolationmode  none
attr title  "received packets, vector(packetBytes)"
vector 188  CAIN.eNodeB1.x2ppp[0].queue  queueingTime:vector  ETV
attr interpolationmode  none
attr title  "queueing time, vector"
vector 137  CAIN.eNodeB.x2ppp[0].ppp  rcvdPkFromHL:vector(packetBytes)  ETV
attr interpolationmode  none
attr source  packetReceivedFromUpper
attr title  "packets received from higher layer, vector(packetBytes)"
vector 133  CAIN.eNodeB.x2ppp[0].ppp  txPk:vector(packetBytes)  ETV
attr interpolationmode  none
attr source  packetSentToLower
attr title  "packets transmitted, vector(packetBytes)"
vector 195  CAIN.eNodeB1.x2ppp[0].ppp  rcvdPkFromHL:vector(packetBytes)  ETV
attr interpolationmode  none
attr source  packetReceivedFromUpper
attr title  "packets received from higher layer, vector(packetBytes)"
vector 191  CAIN.eNodeB1.x2ppp[0].ppp  txPk:vector(packetBytes)  ETV
attr interpolationmode  none
attr source  packetSentToLower
attr title  "packets transmitted, vector(packetBytes)"
vector 192  CAIN.eNodeB1.x2ppp[0].ppp  rxPkOk:vector(packetBytes)  ETV
attr interpolationmode  none
attr source  rxPkOk
attr title  "packets received OK, vector(packetBytes)"
vector 196  CAIN.eNodeB1.x2ppp[0].ppp  passedUpPk:vector(packetBytes)  ETV
attr interpolationmode  none
attr source  packetSentToUpper
attr title  "packets passed to higher layer, vector(packetBytes)"
vector 134  CAIN.eNodeB.x2ppp[0].ppp  rxPkOk:vector(packetBytes)  ETV
attr interpolationmode  none
attr source  rxPkOk
attr title  "packets received OK, vector(packetBytes)"
vector 138  CAIN.eNodeB.x2ppp[0].ppp  passedUpPk:vector(packetBytes)  ETV
attr interpolationmode  none
attr source  packetSentToUpper
attr title  "packets passed to higher layer, vector(packetBytes)"
vector 1005  CAIN.eNodeB1.sctp  "Throughput of Association 4"  ETV
vector 882  CAIN.eNodeB1.sctp  "Peer Rwnd 4"  ETV
vector 1025  CAIN.eNodeB1.sctp  "Fast Recovery State 5:10.0.4.1"  ETV
vector 1052  CAIN.eNodeB1.sctp  "Fast Recovery State 5:10.0.2.2"  ETV
vector 1079  CAIN.eNodeB1.sctp  "Fast Recovery State 5:10.0.5.1"  ETV
vector 1108  CAIN.eNodeB.sctp  "Throughput of Association 3"  ETV
vector 860  CAIN.eNodeB.sctp  "Peer Rwnd 3"  ETV
vector 1128  CAIN.eNodeB.sctp  "Fast Recovery State 6:10.0.4.2"  ETV
vector 1155  CAIN.eNodeB.sctp  "Fast Recovery State 6:10.0.3.2"  ETV
vector 1182  CAIN.eNodeB.sctp  "Fast Recovery State 6:10.0.5.2"  ETV
vector 904  CAIN.eNodeB.sctp  "Peer Rwnd 1"  ETV
vector 1209  CAIN.eNodeB.sctp  "Fast Recovery State 1:10.0.4.2"  ETV
vector 1236  CAIN.eNodeB.sctp  "Fast Recovery State 1:10.0.3.2"  ETV
vector 953  CAIN.eNodeB1.sctp  "Peer Rwnd 2"  ETV
vector 1263  CAIN.eNodeB1.sctp  "Fast Recovery State 2:10.0.4.1"  ETV
vector 1290  CAIN.eNodeB1.sctp  "Fast Recovery State 2:10.0.2.2"  ETV
vector 1035  CAIN.eNodeB1.sctp  "Slow Start Threshold 5:10.0.2.2"  ETV
vector 1036  CAIN.eNodeB1.sctp  "Congestion Window 5:10.0.2.2"  ETV
vector 1037  CAIN.eNodeB1.sctp  "Bandwidth 5:10.0.2.2"  ETV
vector 1040  CAIN.eNodeB1.sctp  "HB Sent 5:10.0.2.2"  ETV
vector 1033  CAIN.eNodeB1.sctp  "RTO 5:10.0.2.2"  ETV
vector 1008  CAIN.eNodeB1.sctp  "Slow Start Threshold 5:10.0.4.1"  ETV
vector 1009  CAIN.eNodeB1.sctp  "Congestion Window 5:10.0.4.1"  ETV
vector 1010  CAIN.eNodeB1.sctp  "Bandwidth 5:10.0.4.1"  ETV
vector 1013  CAIN.eNodeB1.sctp  "HB Sent 5:10.0.4.1"  ETV
vector 1006  CAIN.eNodeB1.sctp  "RTO 5:10.0.4.1"  ETV
vector 1062  CAIN.eNodeB1.sctp  "Slow Start Threshold 5:10.0.5.1"  ETV
vector 1063  CAIN.eNodeB1.sctp  "Congestion Window 5:10.0.5.1"  ETV
vector 1064  CAIN.eNodeB1.sctp  "Bandwidth 5:10.0.5.1"  ETV
vector 1060  CAIN.eNodeB1.sctp  "RTO 5:10.0.5.1"  ETV
vector 1138  CAIN.eNodeB.sctp  "Slow Start Threshold 6:10.0.3.2"  ETV
vector 1139  CAIN.eNodeB.sctp  "Congestion Window 6:10.0.3.2"  ETV
vector 1140  CAIN.eNodeB.sctp  "Bandwidth 6:10.0.3.2"  ETV
vector 1143  CAIN.eNodeB.sctp  "HB Sent 6:10.0.3.2"  ETV
vector 1136  CAIN.eNodeB.sctp  "RTO 6:10.0.3.2"  ETV
vector 1111  CAIN.eNodeB.sctp  "Slow Start Threshold 6:10.0.4.2"  ETV
vector 1112  CAIN.eNodeB.sctp  "Congestion Window 6:10.0.4.2"  ETV
vector 1113  CAIN.eNodeB.sctp  "Bandwidth 6:10.0.4.2"  ETV
vector 1116  CAIN.eNodeB.sctp  "HB Sent 6:10.0.4.2"  ETV
vector 1109  CAIN.eNodeB.sctp  "RTO 6:10.0.4.2"  ETV
vector 1165  CAIN.eNodeB.sctp  "Slow Start Threshold 6:10.0.5.2"  ETV
vector 1166  CAIN.eNodeB.sctp  "Congestion Window 6:10.0.5.2"  ETV
vector 1167  CAIN.eNodeB.sctp  "Bandwidth 6:10.0.5.2"  ETV
vector 1163  CAIN.eNodeB.sctp  "RTO 6:10.0.5.2"  ETV
vector 916  CAIN.eNodeB.sctp  "HB ACK Sent 1:10.0.5.2"  ETV
vector 917  CAIN.eNodeB.sctp  "HB Received 1:10.0.5.2"  ETV
vector 965  CAIN.eNodeB1.sctp  "HB ACK Sent 2:10.0.5.1"  ETV
vector 966  CAIN.eNodeB1.sctp  "HB Received 2:10.0.5.1"  ETV
vector 1219  CAIN.eNodeB.sctp  "Slow Start Threshold 1:10.0.3.2"  ETV
vector 1220  CAIN.eNodeB.sctp  "Congestion Window 1:10.0.3.2"  ETV
vector 1221  CAIN.eNodeB.sctp  "Bandwidth 1:10.0.3.2"  ETV
vector 1224  CAIN.eNodeB.sctp  "HB Sent 1:10.0.3.2"  ETV
vector 1217  CAIN.eNodeB.sctp  "RTO 1:10.0.3.2"  ETV
vector 1192  CAIN.eNodeB.sctp  "Slow Start Threshold 1:10.0.4.2"  ETV
vector 1193  CAIN.eNodeB.sctp  "Congestion Window 1:10.0.4.2"  ETV
vector 1194  CAIN.eNodeB.sctp  "Bandwidth 1:10.0.4.2"  ETV
vector 1197  CAIN.eNodeB.sctp  "HB Sent 1:10.0.4.2"  ETV
vector 1190  CAIN.eNodeB.sctp  "RTO 1:10.0.4.2"  ETV
vector 910  CAIN.eNodeB.sctp  "Slow Start Threshold 1:10.0.5.2"  ETV
vector 911  CAIN.eNodeB.sctp  "Congestion Window 1:10.0.5.2"  ETV
vector 912  CAIN.eNodeB.sctp  "Bandwidth 1:10.0.5.2"  ETV
vector 908  CAIN.eNodeB.sctp  "RTO 1:10.0.5.2"  ETV
vector 1273  CAIN.eNodeB1.sctp  "Slow Start Threshold 2:10.0.2.2"  ETV
vector 1274  CAIN.eNodeB1.sctp  "Congestion Window 2:10.0.2.2"  ETV
vector 1275  CAIN.eNodeB1.sctp  "Bandwidth 2:10.0.2.2"  ETV
vector 1278  CAIN.eNodeB1.sctp  "HB Sent 2:10.0.2.2"  ETV
vector 1271  CAIN.eNodeB1.sctp  "RTO 2:10.0.2.2"  ETV
vector 1246  CAIN.eNodeB1.sctp  "Slow Start Threshold 2:10.0.4.1"  ETV
vector 1247  CAIN.eNodeB1.sctp  "Congestion Window 2:10.0.4.1"  ETV
vector 1248  CAIN.eNodeB1.sctp  "Bandwidth 2:10.0.4.1"  ETV
vector 1251  CAIN.eNodeB1.sctp  "HB Sent 2:10.0.4.1"  ETV
vector 1244  CAIN.eNodeB1.sctp  "RTO 2:10.0.4.1"  ETV
vector 959  CAIN.eNodeB1.sctp  "Slow Start Threshold 2:10.0.5.1"  ETV
vector 960  CAIN.eNodeB1.sctp  "Congestion Window 2:10.0.5.1"  ETV
vector 961  CAIN.eNodeB1.sctp  "Bandwidth 2:10.0.5.1"  ETV
vector 957  CAIN.eNodeB1.sctp  "RTO 2:10.0.5.1"  ETV
vector 1173  CAIN.eNodeB.sctp  "HB ACK Received 6:10.0.5.2"  ETV
vector 1164  CAIN.eNodeB.sctp  "RTT 6:10.0.5.2"  ETV
vector 1070  CAIN.eNodeB1.sctp  "HB ACK Received 5:10.0.5.1"  ETV
vector 1061  CAIN.eNodeB1.sctp  "RTT 5:10.0.5.1"  ETV
vector 1171  CAIN.eNodeB.sctp  "HB ACK Sent 6:10.0.5.2"  ETV
vector 1172  CAIN.eNodeB.sctp  "HB Received 6:10.0.5.2"  ETV
vector 1068  CAIN.eNodeB1.sctp  "HB ACK Sent 5:10.0.5.1"  ETV
vector 1069  CAIN.eNodeB1.sctp  "HB Received 5:10.0.5.1"  ETV
vector 967  CAIN.eNodeB1.sctp  "HB ACK Received 2:10.0.5.1"  ETV
vector 958  CAIN.eNodeB1.sctp  "RTT 2:10.0.5.1"  ETV
vector 918  CAIN.eNodeB.sctp  "HB ACK Received 1:10.0.5.2"  ETV
vector 909  CAIN.eNodeB.sctp  "RTT 1:10.0.5.2"  ETV
vector 96  CAIN.eNodeB.nic.mac  receivedPacketFromLowerLayer:vector(packetBytes)  ETV
attr interpolationmode  none
attr source  receivedPacketFromLowerLayer
vector 1305  CAIN.eNodeB.sctp  "SendQueue of Association 6"  ETV
vector 1168  CAIN.eNodeB.sctp  "TSN Sent 6:10.0.5.2"  ETV
vector 1175  CAIN.eNodeB.sctp  "Outstanding Bytes 6:10.0.5.2"  ETV
vector 848  CAIN.eNodeB.sctp  "Outstanding Bytes 3:Total"  ETV
vector 1174  CAIN.eNodeB.sctp  "Queued Sent Bytes 6:10.0.5.2"  ETV
vector 847  CAIN.eNodeB.sctp  "Queued Sent Bytes 3:Total"  ETV
vector 963  CAIN.eNodeB1.sctp  "TSN Received 2:10.0.5.1"  ETV
vector 939  CAIN.eNodeB1.sctp  "Queued Received Bytes 2:Total"  ETV
vector 935  CAIN.eNodeB1.sctp  "Advertised Receiver Window 2"  ETV
vector 944  CAIN.eNodeB1.sctp  "Number of Total Gap Blocks Stored 2"  ETV
vector 945  CAIN.eNodeB1.sctp  "Number of Revokable Gap Blocks Stored 2"  ETV
vector 946  CAIN.eNodeB1.sctp  "Number of Non-Revokable Gap Blocks Stored 2"  ETV
vector 947  CAIN.eNodeB1.sctp  "Number of Duplicate TSNs Stored 2"  ETV
vector 951  CAIN.eNodeB1.sctp  "Length of SACK Sent 2"  ETV
vector 948  CAIN.eNodeB1.sctp  "Number of Revokable Gap Blocks Sent 2"  ETV
vector 949  CAIN.eNodeB1.sctp  "Number of Non-Revokable Gap Blocks Sent 2"  ETV
vector 950  CAIN.eNodeB1.sctp  "Number of Duplicate TSNs Sent 2"  ETV
vector 955  CAIN.eNodeB1.sctp  "End to End Delay of Association 2"  ETV
vector 199  CAIN.eNodeB1.x2App[0].client  rcvdPk:vector(packetBytes)  ETV
attr interpolationmode  none
attr source  rcvdPk
attr title  "packets received, vector(packetBytes)"
vector 1304  CAIN.eNodeB.sctp  "Number of Gap Blocks in Last SACK of Association 6"  ETV
vector 849  CAIN.eNodeB.sctp  "Number of Revokable Gap Blocks in SACK 3"  ETV
vector 850  CAIN.eNodeB.sctp  "Number of Non-Revokable Gap Blocks in SACK 3"  ETV
vector 1185  CAIN.eNodeB.sctp  "TSN Acked CumAck 6:10.0.5.2"  ETV
vector 1151  CAIN.eNodeB.sctp  "Number of Gap Acked Chunks in Last SACK 6:10.0.3.2"  ETV
vector 1152  CAIN.eNodeB.sctp  "Number of Non-Revokable Gap Acked Chunks in Last SACK 6:10.0.3.2"  ETV
vector 1153  CAIN.eNodeB.sctp  "Number of Gap Missed Chunks in Last SACK 6:10.0.3.2"  ETV
vector 1124  CAIN.eNodeB.sctp  "Number of Gap Acked Chunks in Last SACK 6:10.0.4.2"  ETV
vector 1125  CAIN.eNodeB.sctp  "Number of Non-Revokable Gap Acked Chunks in Last SACK 6:10.0.4.2"  ETV
vector 1126  CAIN.eNodeB.sctp  "Number of Gap Missed Chunks in Last SACK 6:10.0.4.2"  ETV
vector 1178  CAIN.eNodeB.sctp  "Number of Gap Acked Chunks in Last SACK 6:10.0.5.2"  ETV
vector 1179  CAIN.eNodeB.sctp  "Number of Non-Revokable Gap Acked Chunks in Last SACK 6:10.0.5.2"  ETV
vector 1180  CAIN.eNodeB.sctp  "Number of Gap Missed Chunks in Last SACK 6:10.0.5.2"  ETV
vector 859  CAIN.eNodeB.sctp  "Arwnd in Last SACK 3"  ETV
vector 1187  CAIN.eNodeB.sctp  "TSN PseudoCumAck 6:10.0.5.2"  ETV
vector 1188  CAIN.eNodeB.sctp  "TSN RTXPseudoCumAck 6:10.0.5.2"  ETV
vector 1181  CAIN.eNodeB.sctp  "Partial Bytes Acked 6:10.0.5.2"  ETV
vector 1333  CAIN.ueD2DTx[13].tcp  tcpRcvQueueBytes  ETV
vector 1320  CAIN.ueD2DTx[13].tcp  "advertised window"  ETV
vector 1319  CAIN.ueD2DTx[13].tcp  "receive window"  ETV
vector 1322  CAIN.ueD2DTx[13].tcp  "sent ack"  ETV
vector 621  CAIN.ueD2DTx[13].nic.pdcpRrc  receivedPacketFromUpperLayer:vector(packetBytes)  ETV
attr interpolationmode  none
attr source  receivedPacketFromUpperLayer
vector 624  CAIN.ueD2DTx[13].nic.pdcpRrc  sentPacketToLowerLayer:vector(packetBytes)  ETV
attr interpolationmode  none
attr source  sentPacketToLowerLayer
vector 625  CAIN.ueD2DTx[13].nic.mac  receivedPacketFromUpperLayer:vector(packetBytes)  ETV
attr interpolationmode  none
attr source  receivedPacketFromUpperLayer
vector 635  CAIN.ueD2DTx[13].nic.mac  CainHopMessageSent:vector  ETV
attr interpolationmode  none
attr title  "# of Sent CAIN hop message, vector"
vector 628  CAIN.ueD2DTx[13].nic.mac  sentPacketToLowerLayer:vector(packetBytes)  ETV
attr interpolationmode  none
attr source  sentPacketToLowerLayer
vector 274  CAIN.ueD2DTx[2].nic.mac  receivedPacketFromLowerLayer:vector(packetBytes)  ETV
attr interpolationmode  none
attr source  receivedPacketFromLowerLayer
vector 276  CAIN.ueD2DTx[2].nic.mac  sentPacketToLowerLayer:vector(packetBytes)  ETV
attr interpolationmode  none
attr source  sentPacketToLowerLayer
vector 242  CAIN.ueD2DTx[1].nic.mac  receivedPacketFromLowerLayer:vector(packetBytes)  ETV
attr interpolationmode  none
attr source  receivedPacketFromLowerLayer
vector 244  CAIN.ueD2DTx[1].nic.mac  sentPacketToLowerLayer:vector(packetBytes)  ETV
attr interpolationmode  none
attr source  sentPacketToLowerLayer
vector 111  CAIN.eNodeB.nic.mac  racpkt:vector  ETV
attr interpolationmode  none
attr title  "eNB received racpkt message, vector"
vector 112  CAIN.eNodeB.nic.mac  racDistanceSignal:vector  ETV
attr interpolationmode  none
attr title  "Rac distance to enb, vector"
vector 113  CAIN.eNodeB.nic.mac  racServedDevsSignal:vector  ETV
attr interpolationmode  none
attr title  "# of devices served on rac arriavall, vector"
vector 106  CAIN.eNodeB.nic.mac  DistanceSignal:vector  ETV
attr interpolationmode  none
attr title  "Distance to enb, vector"
vector 101  CAIN.eNodeB.nic.mac  CainHopMessage:vector  ETV
attr interpolationmode  none
attr title  "eNB received CAIN hop message, vector"
vector 98  CAIN.eNodeB.nic.mac  sentPacketToLowerLayer:vector(packetBytes)  ETV
attr interpolationmode  none
attr source  sentPacketToLowerLayer
vector 249  CAIN.ueD2DTx[1].nic.mac  DropedHopMessage:vector  ETV
attr interpolationmode  none
attr title  "Droped Hop CAIN message due to RB not available, vector"
vector 1357  CAIN.ueD2DTx[18].tcp  tcpRcvQueueBytes  ETV
vector 1344  CAIN.ueD2DTx[18].tcp  "advertised window"  ETV
vector 1343  CAIN.ueD2DTx[18].tcp  "receive window"  ETV
vector 1346  CAIN.ueD2DTx[18].tcp  "sent ack"  ETV
vector 781  CAIN.ueD2DTx[18].nic.pdcpRrc  receivedPacketFromUpperLayer:vector(packetBytes)  ETV
attr interpolationmode  none
attr source  receivedPacketFromUpperLayer
vector 784  CAIN.ueD2DTx[18].nic.pdcpRrc  sentPacketToLowerLayer:vector(packetBytes)  ETV
attr interpolationmode  none
attr source  sentPacketToLowerLayer
vector 785  CAIN.ueD2DTx[18].nic.mac  receivedPacketFromUpperLayer:vector(packetBytes)  ETV
attr interpolationmode  none
attr source  receivedPacketFromUpperLayer
vector 795  CAIN.ueD2DTx[18].nic.mac  CainHopMessageSent:vector  ETV
attr interpolationmode  none
attr title  "# of Sent CAIN hop message, vector"
vector 788  CAIN.ueD2DTx[18].nic.mac  sentPacketToLowerLayer:vector(packetBytes)  ETV
attr interpolationmode  none
attr source  sentPacketToLowerLayer
vector 1381  CAIN.ueD2DTx[6].tcp  tcpRcvQueueBytes  ETV
vector 1368  CAIN.ueD2DTx[6].tcp  "advertised window"  ETV
vector 1367  CAIN.ueD2DTx[6].tcp  "receive window"  ETV
vector 1370  CAIN.ueD2DTx[6].tcp  "sent ack"  ETV
vector 397  CAIN.ueD2DTx[6].nic.pdcpRrc  receivedPacketFromUpperLayer:vector(packetBytes)  ETV
attr interpolationmode  none
attr source  receivedPacketFromUpperLayer
vector 400  CAIN.ueD2DTx[6].nic.pdcpRrc  sentPacketToLowerLayer:vector(packetBytes)  ETV
attr interpolationmode  none
attr source  sentPacketToLowerLayer
vector 401  CAIN.ueD2DTx[6].nic.mac  receivedPacketFromUpperLayer:vector(packetBytes)  ETV
attr interpolationmode  none
attr source  receivedPacketFromUpperLayer
vector 411  CAIN.ueD2DTx[6].nic.mac  CainHopMessageSent:vector  ETV
attr interpolationmode  none
attr title  "# of Sent CAIN hop message, vector"
vector 404  CAIN.ueD2DTx[6].nic.mac  sentPacketToLowerLayer:vector(packetBytes)  ETV
attr interpolationmode  none
attr source  sentPacketToLowerLayer
vector 1405  CAIN.ueD2DTx[14].tcp  tcpRcvQueueBytes  ETV
vector 1392  CAIN.ueD2DTx[14].tcp  "advertised window"  ETV
vector 1391  CAIN.ueD2DTx[14].tcp  "receive window"  ETV
vector 1394  CAIN.ueD2DTx[14].tcp  "sent ack"  ETV
vector 653  CAIN.ueD2DTx[14].nic.pdcpRrc  receivedPacketFromUpperLayer:vector(packetBytes)  ETV
attr interpolationmode  none
attr source  receivedPacketFromUpperLayer
vector 656  CAIN.ueD2DTx[14].nic.pdcpRrc  sentPacketToLowerLayer:vector(packetBytes)  ETV
attr interpolationmode  none
attr source  sentPacketToLowerLayer
vector 657  CAIN.ueD2DTx[14].nic.mac  receivedPacketFromUpperLayer:vector(packetBytes)  ETV
attr interpolationmode  none
attr source  receivedPacketFromUpperLayer
vector 667  CAIN.ueD2DTx[14].nic.mac  CainHopMessageSent:vector  ETV
attr interpolationmode  none
attr title  "# of Sent CAIN hop message, vector"
vector 660  CAIN.ueD2DTx[14].nic.mac  sentPacketToLowerLayer:vector(packetBytes)  ETV
attr interpolationmode  none
attr source  sentPacketToLowerLayer
vector 1429  CAIN.ueD2DTx[12].tcp  tcpRcvQueueBytes  ETV
vector 1416  CAIN.ueD2DTx[12].tcp  "advertised window"  ETV
vector 1415  CAIN.ueD2DTx[12].tcp  "receive window"  ETV
vector 1418  CAIN.ueD2DTx[12].tcp  "sent ack"  ETV
vector 589  CAIN.ueD2DTx[12].nic.pdcpRrc  receivedPacketFromUpperLayer:vector(packetBytes)  ETV
attr interpolationmode  none
attr source  receivedPacketFromUpperLayer
vector 592  CAIN.ueD2DTx[12].nic.pdcpRrc  sentPacketToLowerLayer:vector(packetBytes)  ETV
attr interpolationmode  none
attr source  sentPacketToLowerLayer
vector 593  CAIN.ueD2DTx[12].nic.mac  receivedPacketFromUpperLayer:vector(packetBytes)  ETV
attr interpolationmode  none
attr source  receivedPacketFromUpperLayer
vector 603  CAIN.ueD2DTx[12].nic.mac  CainHopMessageSent:vector  ETV
attr interpolationmode  none
attr title  "# of Sent CAIN hop message, vector"
vector 596  CAIN.ueD2DTx[12].nic.mac  sentPacketToLowerLayer:vector(packetBytes)  ETV
attr interpolationmode  none
attr source  sentPacketToLowerLayer
vector 210  CAIN.ueD2DTx[0].nic.mac  receivedPacketFromLowerLayer:vector(packetBytes)  ETV
attr interpolationmode  none
attr source  receivedPacketFromLowerLayer
vector 212  CAIN.ueD2DTx[0].nic.mac  sentPacketToLowerLayer:vector(packetBytes)  ETV
attr interpolationmode  none
attr source  sentPacketToLowerLayer
vector 217  CAIN.ueD2DTx[0].nic.mac  DropedHopMessage:vector  ETV
attr interpolationmode  none
attr title  "Droped Hop CAIN message due to RB not available, vector"
vector 1453  CAIN.ueD2DTx[2].tcp  tcpRcvQueueBytes  ETV
vector 1440  CAIN.ueD2DTx[2].tcp  "advertised window"  ETV
vector 1439  CAIN.ueD2DTx[2].tcp  "receive window"  ETV
vector 1442  CAIN.ueD2DTx[2].tcp  "sent ack"  ETV
vector 269  CAIN.ueD2DTx[2].nic.pdcpRrc  receivedPacketFromUpperLayer:vector(packetBytes)  ETV
attr interpolationmode  none
attr source  receivedPacketFromUpperLayer
vector 272  CAIN.ueD2DTx[2].nic.pdcpRrc  sentPacketToLowerLayer:vector(packetBytes)  ETV
attr interpolationmode  none
attr source  sentPacketToLowerLayer
vector 273  CAIN.ueD2DTx[2].nic.mac  receivedPacketFromUpperLayer:vector(packetBytes)  ETV
attr interpolationmode  none
attr source  receivedPacketFromUpperLayer
vector 282  CAIN.ueD2DTx[2].nic.mac  CainMessageSent:vector  ETV
attr interpolationmode  none
attr title  "# of Sent CAIN message, vector"
vector 1477  CAIN.ueD2DTx[15].tcp  tcpRcvQueueBytes  ETV
vector 1464  CAIN.ueD2DTx[15].tcp  "advertised window"  ETV
vector 1463  CAIN.ueD2DTx[15].tcp  "receive window"  ETV
vector 1466  CAIN.ueD2DTx[15].tcp  "sent ack"  ETV
vector 685  CAIN.ueD2DTx[15].nic.pdcpRrc  receivedPacketFromUpperLayer:vector(packetBytes)  ETV
attr interpolationmode  none
attr source  receivedPacketFromUpperLayer
vector 688  CAIN.ueD2DTx[15].nic.pdcpRrc  sentPacketToLowerLayer:vector(packetBytes)  ETV
attr interpolationmode  none
attr source  sentPacketToLowerLayer
vector 689  CAIN.ueD2DTx[15].nic.mac  receivedPacketFromUpperLayer:vector(packetBytes)  ETV
attr interpolationmode  none
attr source  receivedPacketFromUpperLayer
vector 699  CAIN.ueD2DTx[15].nic.mac  CainHopMessageSent:vector  ETV
attr interpolationmode  none
attr title  "# of Sent CAIN hop message, vector"
vector 692  CAIN.ueD2DTx[15].nic.mac  sentPacketToLowerLayer:vector(packetBytes)  ETV
attr interpolationmode  none
attr source  sentPacketToLowerLayer
vector 100  CAIN.eNodeB.nic.mac  CainMessage:vector  ETV
attr interpolationmode  none
attr title  "eNB received CAIN message, vector"
vector 248  CAIN.ueD2DTx[1].nic.mac  DropedCainMessage:vector  ETV
attr interpolationmode  none
attr title  "Droped CAIN message due to RB not available, vector"
vector 1501  CAIN.ueD2DTx[3].tcp  tcpRcvQueueBytes  ETV
vector 1488  CAIN.ueD2DTx[3].tcp  "advertised window"  ETV
vector 1487  CAIN.ueD2DTx[3].tcp  "receive window"  ETV
vector 1490  CAIN.ueD2DTx[3].tcp  "sent ack"  ETV
vector 301  CAIN.ueD2DTx[3].nic.pdcpRrc  receivedPacketFromUpperLayer:vector(packetBytes)  ETV
attr interpolationmode  none
attr source  receivedPacketFromUpperLayer
vector 304  CAIN.ueD2DTx[3].nic.pdcpRrc  sentPacketToLowerLayer:vector(packetBytes)  ETV
attr interpolationmode  none
attr source  sentPacketToLowerLayer
vector 305  CAIN.ueD2DTx[3].nic.mac  receivedPacketFromUpperLayer:vector(packetBytes)  ETV
attr interpolationmode  none
attr source  receivedPacketFromUpperLayer
vector 315  CAIN.ueD2DTx[3].nic.mac  CainHopMessageSent:vector  ETV
attr interpolationmode  none
attr title  "# of Sent CAIN hop message, vector"
vector 308  CAIN.ueD2DTx[3].nic.mac  sentPacketToLowerLayer:vector(packetBytes)  ETV
attr interpolationmode  none
attr source  sentPacketToLowerLayer
vector 1525  CAIN.ueD2DTx[8].tcp  tcpRcvQueueBytes  ETV
vector 1512  CAIN.ueD2DTx[8].tcp  "advertised window"  ETV
vector 1511  CAIN.ueD2DTx[8].tcp  "receive window"  ETV
vector 1514  CAIN.ueD2DTx[8].tcp  "sent ack"  ETV
vector 461  CAIN.ueD2DTx[8].nic.pdcpRrc  receivedPacketFromUpperLayer:vector(packetBytes)  ETV
attr interpolationmode  none
attr source  receivedPacketFromUpperLayer
vector 464  CAIN.ueD2DTx[8].nic.pdcpRrc  sentPacketToLowerLayer:vector(packetBytes)  ETV
attr interpolationmode  none
attr source  sentPacketToLowerLayer
vector 465  CAIN.ueD2DTx[8].nic.mac  receivedPacketFromUpperLayer:vector(packetBytes)  ETV
attr interpolationmode  none
attr source  receivedPacketFromUpperLayer
vector 475  CAIN.ueD2DTx[8].nic.mac  CainHopMessageSent:vector  ETV
attr interpolationmode  none
attr title  "# of Sent CAIN hop message, vector"
vector 468  CAIN.ueD2DTx[8].nic.mac  sentPacketToLowerLayer:vector(packetBytes)  ETV
attr interpolationmode  none
attr source  sentPacketToLowerLayer
vector 1549  CAIN.ueD2DTx[11].tcp  tcpRcvQueueBytes  ETV
vector 1536  CAIN.ueD2DTx[11].tcp  "advertised window"  ETV
vector 1535  CAIN.ueD2DTx[11].tcp  "receive window"  ETV
vector 1538  CAIN.ueD2DTx[11].tcp  "sent ack"  ETV
vector 557  CAIN.ueD2DTx[11].nic.pdcpRrc  receivedPacketFromUpperLayer:vector(packetBytes)  ETV
attr interpolationmode  none
attr source  receivedPacketFromUpperLayer
vector 560  CAIN.ueD2DTx[11].nic.pdcpRrc  sentPacketToLowerLayer:vector(packetBytes)  ETV
attr interpolationmode  none
attr source  sentPacketToLowerLayer
vector 561  CAIN.ueD2DTx[11].nic.mac  receivedPacketFromUpperLayer:vector(packetBytes)  ETV
attr interpolationmode  none
attr source  receivedPacketFromUpperLayer
vector 571  CAIN.ueD2DTx[11].nic.mac  CainHopMessageSent:vector  ETV
attr interpolationmode  none
attr title  "# of Sent CAIN hop message, vector"
vector 564  CAIN.ueD2DTx[11].nic.mac  sentPacketToLowerLayer:vector(packetBytes)  ETV
attr interpolationmode  none
attr source  sentPacketToLowerLayer
vector 1573  CAIN.ueD2DTx[7].tcp  tcpRcvQueueBytes  ETV
vector 1560  CAIN.ueD2DTx[7].tcp  "advertised window"  ETV
vector 1559  CAIN.ueD2DTx[7].tcp  "receive window"  ETV
vector 1562  CAIN.ueD2DTx[7].tcp  "sent ack"  ETV
vector 429  CAIN.ueD2DTx[7].nic.pdcpRrc  receivedPacketFromUpperLayer:vector(packetBytes)  ETV
attr interpolationmode  none
attr source  receivedPacketFromUpperLayer
vector 432  CAIN.ueD2DTx[7].nic.pdcpRrc  sentPacketToLowerLayer:vector(packetBytes)  ETV
attr interpolationmode  none
attr source  sentPacketToLowerLayer
vector 433  CAIN.ueD2DTx[7].nic.mac  receivedPacketFromUpperLayer:vector(packetBytes)  ETV
attr interpolationmode  none
attr source  receivedPacketFromUpperLayer
vector 443  CAIN.ueD2DTx[7].nic.mac  CainHopMessageSent:vector  ETV
attr interpolationmode  none
attr title  "# of Sent CAIN hop message, vector"
vector 436  CAIN.ueD2DTx[7].nic.mac  sentPacketToLowerLayer:vector(packetBytes)  ETV
attr interpolationmode  none
attr source  sentPacketToLowerLayer
vector 1301  CAIN.eNodeB1.sctp  "SendQueue of Association 5"  ETV
vector 1065  CAIN.eNodeB1.sctp  "TSN Sent 5:10.0.5.1"  ETV
vector 1072  CAIN.eNodeB1.sctp  "Outstanding Bytes 5:10.0.5.1"  ETV
vector 870  CAIN.eNodeB1.sctp  "Outstanding Bytes 4:Total"  ETV
vector 1071  CAIN.eNodeB1.sctp  "Queued Sent Bytes 5:10.0.5.1"  ETV
vector 869  CAIN.eNodeB1.sctp  "Queued Sent Bytes 4:Total"  ETV
vector 914  CAIN.eNodeB.sctp  "TSN Received 1:10.0.5.2"  ETV
vector 890  CAIN.eNodeB.sctp  "Queued Received Bytes 1:Total"  ETV
vector 886  CAIN.eNodeB.sctp  "Advertised Receiver Window 1"  ETV
vector 895  CAIN.eNodeB.sctp  "Number of Total Gap Blocks Stored 1"  ETV
vector 896  CAIN.eNodeB.sctp  "Number of Revokable Gap Blocks Stored 1"  ETV
vector 897  CAIN.eNodeB.sctp  "Number of Non-Revokable Gap Blocks Stored 1"  ETV
vector 898  CAIN.eNodeB.sctp  "Number of Duplicate TSNs Stored 1"  ETV
vector 902  CAIN.eNodeB.sctp  "Length of SACK Sent 1"  ETV
vector 899  CAIN.eNodeB.sctp  "Number of Revokable Gap Blocks Sent 1"  ETV
vector 900  CAIN.eNodeB.sctp  "Number of Non-Revokable Gap Blocks Sent 1"  ETV
vector 901  CAIN.eNodeB.sctp  "Number of Duplicate TSNs Sent 1"  ETV
vector 906  CAIN.eNodeB.sctp  "End to End Delay of Association 1"  ETV
vector 141  CAIN.eNodeB.x2App[0].client  rcvdPk:vector(packetBytes)  ETV
attr interpolationmode  none
attr source  rcvdPk
attr title  "packets received, vector(packetBytes)"
vector 1300  CAIN.eNodeB1.sctp  "Number of Gap Blocks in Last SACK of Association 5"  ETV
vector 871  CAIN.eNodeB1.sctp  "Number of Revokable Gap Blocks in SACK 4"  ETV
vector 872  CAIN.eNodeB1.sctp  "Number of Non-Revokable Gap Blocks in SACK 4"  ETV
vector 1082  CAIN.eNodeB1.sctp  "TSN Acked CumAck 5:10.0.5.1"  ETV
vector 1048  CAIN.eNodeB1.sctp  "Number of Gap Acked Chunks in Last SACK 5:10.0.2.2"  ETV
vector 1049  CAIN.eNodeB1.sctp  "Number of Non-Revokable Gap Acked Chunks in Last SACK 5:10.0.2.2"  ETV
vector 1050  CAIN.eNodeB1.sctp  "Number of Gap Missed Chunks in Last SACK 5:10.0.2.2"  ETV
vector 1021  CAIN.eNodeB1.sctp  "Number of Gap Acked Chunks in Last SACK 5:10.0.4.1"  ETV
vector 1022  CAIN.eNodeB1.sctp  "Number of Non-Revokable Gap Acked Chunks in Last SACK 5:10.0.4.1"  ETV
vector 1023  CAIN.eNodeB1.sctp  "Number of Gap Missed Chunks in Last SACK 5:10.0.4.1"  ETV
vector 1075  CAIN.eNodeB1.sctp  "Number of Gap Acked Chunks in Last SACK 5:10.0.5.1"  ETV
vector 1076  CAIN.eNodeB1.sctp  "Number of Non-Revokable Gap Acked Chunks in Last SACK 5:10.0.5.1"  ETV
vector 1077  CAIN.eNodeB1.sctp  "Number of Gap Missed Chunks in Last SACK 5:10.0.5.1"  ETV
vector 881  CAIN.eNodeB1.sctp  "Arwnd in Last SACK 4"  ETV
vector 1084  CAIN.eNodeB1.sctp  "TSN PseudoCumAck 5:10.0.5.1"  ETV
vector 1085  CAIN.eNodeB1.sctp  "TSN RTXPseudoCumAck 5:10.0.5.1"  ETV
vector 1078  CAIN.eNodeB1.sctp  "Partial Bytes Acked 5:10.0.5.1"  ETV
vector 1597  CAIN.ueD2DTx[4].tcp  tcpRcvQueueBytes  ETV
vector 1584  CAIN.ueD2DTx[4].tcp  "advertised window"  ETV
vector 1583  CAIN.ueD2DTx[4].tcp  "receive window"  ETV
vector 1586  CAIN.ueD2DTx[4].tcp  "sent ack"  ETV
vector 333  CAIN.ueD2DTx[4].nic.pdcpRrc  receivedPacketFromUpperLayer:vector(packetBytes)  ETV
attr interpolationmode  none
attr source  receivedPacketFromUpperLayer
vector 336  CAIN.ueD2DTx[4].nic.pdcpRrc  sentPacketToLowerLayer:vector(packetBytes)  ETV
attr interpolationmode  none
attr source  sentPacketToLowerLayer
vector 337  CAIN.ueD2DTx[4].nic.mac  receivedPacketFromUpperLayer:vector(packetBytes)  ETV
attr interpolationmode  none
attr source  receivedPacketFromUpperLayer
vector 347  CAIN.ueD2DTx[4].nic.mac  CainHopMessageSent:vector  ETV
attr interpolationmode  none
attr title  "# of Sent CAIN hop message, vector"
vector 340  CAIN.ueD2DTx[4].nic.mac  sentPacketToLowerLayer:vector(packetBytes)  ETV
attr interpolationmode  none
attr source  sentPacketToLowerLayer
vector 154  CAIN.eNodeB1.nic.mac  receivedPacketFromLowerLayer:vector(packetBytes)  ETV
attr interpolationmode  none
attr source  receivedPacketFromLowerLayer
vector 1621  CAIN.ueD2DTx[16].tcp  tcpRcvQueueBytes  ETV
vector 1608  CAIN.ueD2DTx[16].tcp  "advertised window"  ETV
vector 1607  CAIN.ueD2DTx[16].tcp  "receive window"  ETV
vector 1610  CAIN.ueD2DTx[16].tcp  "sent ack"  ETV
vector 717  CAIN.ueD2DTx[16].nic.pdcpRrc  receivedPacketFromUpperLayer:vector(packetBytes)  ETV
attr interpolationmode  none
attr source  receivedPacketFromUpperLayer
vector 720  CAIN.ueD2DTx[16].nic.pdcpRrc  sentPacketToLowerLayer:vector(packetBytes)  ETV
attr interpolationmode  none
attr source  sentPacketToLowerLayer
vector 721  CAIN.ueD2DTx[16].nic.mac  receivedPacketFromUpperLayer:vector(packetBytes)  ETV
attr interpolationmode  none
attr source  receivedPacketFromUpperLayer
vector 724  CAIN.ueD2DTx[16].nic.mac  sentPacketToLowerLayer:vector(packetBytes)  ETV
attr interpolationmode  none
attr source  sentPacketToLowerLayer
vector 1645  CAIN.ueD2DTx[1].tcp  tcpRcvQueueBytes  ETV
vector 1632  CAIN.ueD2DTx[1].tcp  "advertised window"  ETV
vector 1631  CAIN.ueD2DTx[1].tcp  "receive window"  ETV
vector 1634  CAIN.ueD2DTx[1].tcp  "sent ack"  ETV
vector 237  CAIN.ueD2DTx[1].nic.pdcpRrc  receivedPacketFromUpperLayer:vector(packetBytes)  ETV
attr interpolationmode  none
attr source  receivedPacketFromUpperLayer
vector 240  CAIN.ueD2DTx[1].nic.pdcpRrc  sentPacketToLowerLayer:vector(packetBytes)  ETV
attr interpolationmode  none
attr source  sentPacketToLowerLayer
vector 241  CAIN.ueD2DTx[1].nic.mac  receivedPacketFromUpperLayer:vector(packetBytes)  ETV
attr interpolationmode  none
attr source  receivedPacketFromUpperLayer
vector 169  CAIN.eNodeB1.nic.mac  racpkt:vector  ETV
attr interpolationmode  none
attr title  "eNB received racpkt message, vector"
vector 170  CAIN.eNodeB1.nic.mac  racDistanceSignal:vector  ETV
attr interpolationmode  none
attr title  "Rac distance to enb, vector"
vector 171  CAIN.eNodeB1.nic.mac  racServedDevsSignal:vector  ETV
attr interpolationmode  none
attr title  "# of devices served on rac arriavall, vector"
vector 156  CAIN.eNodeB1.nic.mac  sentPacketToLowerLayer:vector(packetBytes)  ETV
attr interpolationmode  none
attr source  sentPacketToLowerLayer
vector 722  CAIN.ueD2DTx[16].nic.mac  receivedPacketFromLowerLayer:vector(packetBytes)  ETV
attr interpolationmode  none
attr source  receivedPacketFromLowerLayer
vector 243  CAIN.ueD2DTx[1].nic.mac  sentPacketToUpperLayer:vector(packetBytes)  ETV
attr interpolationmode  none
attr source  sentPacketToUpperLayer
vector 108  CAIN.eNodeB.nic.mac  ServedDevs:vector  ETV
attr interpolationmode  none
attr title  "# of devices served on cain forwarding, vector"
vector 1669  CAIN.ueD2DTx[9].tcp  tcpRcvQueueBytes  ETV
vector 1656  CAIN.ueD2DTx[9].tcp  "advertised window"  ETV
vector 1655  CAIN.ueD2DTx[9].tcp  "receive window"  ETV
vector 1658  CAIN.ueD2DTx[9].tcp  "sent ack"  ETV
vector 493  CAIN.ueD2DTx[9].nic.pdcpRrc  receivedPacketFromUpperLayer:vector(packetBytes)  ETV
attr interpolationmode  none
attr source  receivedPacketFromUpperLayer
vector 496  CAIN.ueD2DTx[9].nic.pdcpRrc  sentPacketToLowerLayer:vector(packetBytes)  ETV
attr interpolationmode  none
attr source  sentPacketToLowerLayer
vector 497  CAIN.ueD2DTx[9].nic.mac  receivedPacketFromUpperLayer:vector(packetBytes)  ETV
attr interpolationmode  none
attr source  receivedPacketFromUpperLayer
vector 507  CAIN.ueD2DTx[9].nic.mac  CainHopMessageSent:vector  ETV
attr interpolationmode  none
attr title  "# of Sent CAIN hop message, vector"
vector 500  CAIN.ueD2DTx[9].nic.mac  sentPacketToLowerLayer:vector(packetBytes)  ETV
attr interpolationmode  none
attr source  sentPacketToLowerLayer
vector 1693  CAIN.ueD2DTx[10].tcp  tcpRcvQueueBytes  ETV
vector 1680  CAIN.ueD2DTx[10].tcp  "advertised window"  ETV
vector 1679  CAIN.ueD2DTx[10].tcp  "receive window"  ETV
vector 1682  CAIN.ueD2DTx[10].tcp  "sent ack"  ETV
vector 525  CAIN.ueD2DTx[10].nic.pdcpRrc  receivedPacketFromUpperLayer:vector(packetBytes)  ETV
attr interpolationmode  none
attr source  receivedPacketFromUpperLayer
vector 528  CAIN.ueD2DTx[10].nic.pdcpRrc  sentPacketToLowerLayer:vector(packetBytes)  ETV
attr interpolationmode  none
attr source  sentPacketToLowerLayer
vector 529  CAIN.ueD2DTx[10].nic.mac  receivedPacketFromUpperLayer:vector(packetBytes)  ETV
attr interpolationmode  none
attr source  receivedPacketFromUpperLayer
vector 539  CAIN.ueD2DTx[10].nic.mac  CainHopMessageSent:vector  ETV
attr interpolationmode  none
attr title  "# of Sent CAIN hop message, vector"
vector 532  CAIN.ueD2DTx[10].nic.mac  sentPacketToLowerLayer:vector(packetBytes)  ETV
attr interpolationmode  none
attr source  sentPacketToLowerLayer
vector 1717  CAIN.ueD2DTx[17].tcp  tcpRcvQueueBytes  ETV
vector 1704  CAIN.ueD2DTx[17].tcp  "advertised window"  ETV
vector 1703  CAIN.ueD2DTx[17].tcp  "receive window"  ETV
vector 1706  CAIN.ueD2DTx[17].tcp  "sent ack"  ETV
vector 749  CAIN.ueD2DTx[17].nic.pdcpRrc  receivedPacketFromUpperLayer:vector(packetBytes)  ETV
attr interpolationmode  none
attr source  receivedPacketFromUpperLayer
vector 752  CAIN.ueD2DTx[17].nic.pdcpRrc  sentPacketToLowerLayer:vector(packetBytes)  ETV
attr interpolationmode  none
attr source  sentPacketToLowerLayer
vector 753  CAIN.ueD2DTx[17].nic.mac  receivedPacketFromUpperLayer:vector(packetBytes)  ETV
attr interpolationmode  none
attr source  receivedPacketFromUpperLayer
vector 1741  CAIN.ueD2DTx[0].tcp  tcpRcvQueueBytes  ETV
vector 1728  CAIN.ueD2DTx[0].tcp  "advertised window"  ETV
vector 1727  CAIN.ueD2DTx[0].tcp  "receive window"  ETV
vector 1730  CAIN.ueD2DTx[0].tcp  "sent ack"  ETV
vector 205  CAIN.ueD2DTx[0].nic.pdcpRrc  receivedPacketFromUpperLayer:vector(packetBytes)  ETV
attr interpolationmode  none
attr source  receivedPacketFromUpperLayer
vector 208  CAIN.ueD2DTx[0].nic.pdcpRrc  sentPacketToLowerLayer:vector(packetBytes)  ETV
attr interpolationmode  none
attr source  sentPacketToLowerLayer
vector 209  CAIN.ueD2DTx[0].nic.mac  receivedPacketFromUpperLayer:vector(packetBytes)  ETV
attr interpolationmode  none
attr source  receivedPacketFromUpperLayer
vector 756  CAIN.ueD2DTx[17].nic.mac  sentPacketToLowerLayer:vector(packetBytes)  ETV
attr interpolationmode  none
attr source  sentPacketToLowerLayer
vector 754  CAIN.ueD2DTx[17].nic.mac  receivedPacketFromLowerLayer:vector(packetBytes)  ETV
attr interpolationmode  none
attr source  receivedPacketFromLowerLayer
vector 109  CAIN.eNodeB.nic.mac  ServedHopDevs:vector  ETV
attr interpolationmode  none
attr title  "# of devices served on hop forwarding, vector"
vector 115  CAIN.eNodeB.nic.phy  averageCqiUlvect:vector  ETV
attr source  averageCqiUlvect
attr title  "Average Cqi reported in UL, vector"
attr unit  cqi
vector 1765  CAIN.ueD2DTx[19].tcp  tcpRcvQueueBytes  ETV
vector 1752  CAIN.ueD2DTx[19].tcp  "advertised window"  ETV
vector 1751  CAIN.ueD2DTx[19].tcp  "receive window"  ETV
vector 1754  CAIN.ueD2DTx[19].tcp  "sent ack"  ETV
vector 813  CAIN.ueD2DTx[19].nic.pdcpRrc  receivedPacketFromUpperLayer:vector(packetBytes)  ETV
attr interpolationmode  none
attr source  receivedPacketFromUpperLayer
vector 816  CAIN.ueD2DTx[19].nic.pdcpRrc  sentPacketToLowerLayer:vector(packetBytes)  ETV
attr interpolationmode  none
attr source  sentPacketToLowerLayer
vector 817  CAIN.ueD2DTx[19].nic.mac  receivedPacketFromUpperLayer:vector(packetBytes)  ETV
attr interpolationmode  none
attr source  receivedPacketFromUpperLayer
vector 1789  CAIN.ueD2DTx[5].tcp  tcpRcvQueueBytes  ETV
vector 1776  CAIN.ueD2DTx[5].tcp  "advertised window"  ETV
vector 1775  CAIN.ueD2DTx[5].tcp  "receive window"  ETV
vector 1778  CAIN.ueD2DTx[5].tcp  "sent ack"  ETV
vector 365  CAIN.ueD2DTx[5].nic.pdcpRrc  receivedPacketFromUpperLayer:vector(packetBytes)  ETV
attr interpolationmode  none
attr source  receivedPacketFromUpperLayer
vector 368  CAIN.ueD2DTx[5].nic.pdcpRrc  sentPacketToLowerLayer:vector(packetBytes)  ETV
attr interpolationmode  none
attr source  sentPacketToLowerLayer
vector 369  CAIN.ueD2DTx[5].nic.mac  receivedPacketFromUpperLayer:vector(packetBytes)  ETV
attr interpolationmode  none
attr source  receivedPacketFromUpperLayer
vector 372  CAIN.ueD2DTx[5].nic.mac  sentPacketToLowerLayer:vector(packetBytes)  ETV
attr interpolationmode  none
attr source  sentPacketToLowerLayer
vector 827  CAIN.ueD2DTx[19].nic.mac  CainHopMessageSent:vector  ETV
attr interpolationmode  none
attr title  "# of Sent CAIN hop message, vector"
vector 820  CAIN.ueD2DTx[19].nic.mac  sentPacketToLowerLayer:vector(packetBytes)  ETV
attr interpolationmode  none
attr source  sentPacketToLowerLayer
vector 370  CAIN.ueD2DTx[5].nic.mac  receivedPacketFromLowerLayer:vector(packetBytes)  ETV
attr interpolationmode  none
attr source  receivedPacketFromLowerLayer
vector 218  CAIN.ueD2DTx[0].nic.mac  CainMessageSent:vector  ETV
attr interpolationmode  none
attr title  "# of Sent CAIN message, vector"
vector 626  CAIN.ueD2DTx[13].nic.mac  receivedPacketFromLowerLayer:vector(packetBytes)  ETV
attr interpolationmode  none
attr source  receivedPacketFromLowerLayer
vector 627  CAIN.ueD2DTx[13].nic.mac  sentPacketToUpperLayer:vector(packetBytes)  ETV
attr interpolationmode  none
attr source  sentPacketToUpperLayer
vector 786  CAIN.ueD2DTx[18].nic.mac  receivedPacketFromLowerLayer:vector(packetBytes)  ETV
attr interpolationmode  none
attr source  receivedPacketFromLowerLayer
vector 787  CAIN.ueD2DTx[18].nic.mac  sentPacketToUpperLayer:vector(packetBytes)  ETV
attr interpolationmode  none
attr source  sentPacketToUpperLayer
vector 658  CAIN.ueD2DTx[14].nic.mac  receivedPacketFromLowerLayer:vector(packetBytes)  ETV
attr interpolationmode  none
attr source  receivedPacketFromLowerLayer
vector 594  CAIN.ueD2DTx[12].nic.mac  receivedPacketFromLowerLayer:vector(packetBytes)  ETV
attr interpolationmode  none
attr source  receivedPacketFromLowerLayer
vector 659  CAIN.ueD2DTx[14].nic.mac  sentPacketToUpperLayer:vector(packetBytes)  ETV
attr interpolationmode  none
attr source  sentPacketToUpperLayer
vector 595  CAIN.ueD2DTx[12].nic.mac  sentPacketToUpperLayer:vector(packetBytes)  ETV
attr interpolationmode  none
attr source  sentPacketToUpperLayer
vector 690  CAIN.ueD2DTx[15].nic.mac  receivedPacketFromLowerLayer:vector(packetBytes)  ETV
attr interpolationmode  none
attr source  receivedPacketFromLowerLayer
vector 338  CAIN.ueD2DTx[4].nic.mac  receivedPacketFromLowerLayer:vector(packetBytes)  ETV
attr interpolationmode  none
attr source  receivedPacketFromLowerLayer
vector 691  CAIN.ueD2DTx[15].nic.mac  sentPacketToUpperLayer:vector(packetBytes)  ETV
attr interpolationmode  none
attr source  sentPacketToUpperLayer
vector 306  CAIN.ueD2DTx[3].nic.mac  receivedPacketFromLowerLayer:vector(packetBytes)  ETV
attr interpolationmode  none
attr source  receivedPacketFromLowerLayer
vector 723  CAIN.ueD2DTx[16].nic.mac  sentPacketToUpperLayer:vector(packetBytes)  ETV
attr interpolationmode  none
attr source  sentPacketToUpperLayer
vector 99  CAIN.eNodeB.nic.mac  measuredItbs:vector  ETV
attr source  measuredItbs
attr title  "TBS index, vector"
attr unit  ""
vector 283  CAIN.ueD2DTx[2].nic.mac  CainHopMessageSent:vector  ETV
attr interpolationmode  none
attr title  "# of Sent CAIN hop message, vector"
vector 219  CAIN.ueD2DTx[0].nic.mac  CainHopMessageSent:vector  ETV
attr interpolationmode  none
attr title  "# of Sent CAIN hop message, vector"
vector 755  CAIN.ueD2DTx[17].nic.mac  sentPacketToUpperLayer:vector(packetBytes)  ETV
attr interpolationmode  none
attr source  sentPacketToUpperLayer
vector 371  CAIN.ueD2DTx[5].nic.mac  sentPacketToUpperLayer:vector(packetBytes)  ETV
attr interpolationmode  none
attr source  sentPacketToUpperLayer
1108	50425 24 150 150 0.0000001228 0.0000001228 1 0 0 0 0
1219	50449 28 235 235 0.0000006304 0.0000006304 1 65535 65535 65535 4294836225
1220	50477 27 235 235 0.0000006304 0.0000006304 1 8940 8940 8940 79923600
1221	50504 29 235 235 0.0000006304 0.0000006304 1 0.3725 0.3725 0.3725 0.13875625
1217	50533 24 235 235 0.0000006304 0.0000006304 1 3 3 3 9
1224	50557 24 235 235 0.0000006304 0.0000006304 1 1 1 1 1
1236	50581 24 163 163 0.0000003096 0.0000003096 1 0 0 0 0
1192	50605 28 235 235 0.0000006304 0.0000006304 1 65535 65535 65535 4294836225
1193	50633 27 235 235 0.0000006304 0.0000006304 1 8940 8940 8940 79923600
1194	50660 29 235 235 0.0000006304 0.0000006304 1 0.3725 0.3725 0.3725 0.13875625
1190	50689 24 235 235 0.0000006304 0.0000006304 1 3 3 3 9
1197	50713 24 235 235 0.0000006304 0.0000006304 1 1 1 1 1
1209	50737 24 163 163 0.0000003096 0.0000003096 1 0 0 0 0
910	50761 27 235 235 0.0000006304 0.0000006304 1 65535 65535 65535 4294836225
911	50788 26 235 235 0.0000006304 0.0000006304 1 8940 8940 8940 79923600
912	50814 28 235 235 0.0000006304 0.0000006304 1 0.3725 0.3725 0.3725 0.13875625
908	50842 46 235 302 0.0000006304 0.0000008564 2 1 3 4 10
909	50888 30 302 302 0.0000008564 0.0000008564 1 2.26e-07 2.26e-07 2.26e-07 5.1076e-14
914	50918 2510 3471 16991 0.0570000972 0.2570018716 90 2000 2089 184005 376258965
917	53428 44 207 221 0.000000552 0.000000596 2 1 2 3 5
916	53472 44 207 221 0.000000552 0.000000596 2 1 2 3 5
918	53516 46 302 308 0.0000008564 0.0000009004 2 1 2 3 5
927	53562 12 131 131 0 0 1 0 0 0 0
886	53574 86 3471 30473 0.0570000972 0.4570018716 3 65533 65535 196603 12884246539
890	53660 2317 3471 30473 0.0570000972 0.4570018716 93 0 160 182 25932
895	55977 74 3471 30473 0.0570000972 0.4570018716 3 0 0 0 0
896	56051 74 3471 30473 0.0570000972 0.4570018716 3 0 0 0 0
897	56125 74 3471 30473 0.0570000972 0.4570018716 3 0 0 0 0
898	56199 74 3471 30473 0.0570000972 0.4570018716 3 0 0 0 0
899	56273 74 3471 30473 0.0570000972 0.4570018716 3 0 0 0 0
900	56347 74 3471 30473 0.0570000972 0.4570018716 3 0 0 0 0
901	56421 74 3471 30473 0.0570000972 0.4570018716 3 0 0 0 0
902	56495 77 3471 30473 0.0570000972 0.4570018716 3 16 16 48 768
904	56572 27 163 163 0.0000003096 0.0000003096 1 65535 65535 65535 4294836225
906	56599 3039 3474 17072 0.0570000972 0.2570018716 90 9.72e-08 1.3612e-06 0.00011102 1.486951184e-10
907	59638 12 131 131 0 0 1 0 0 0 0
1138	59650 27 178 178 0.000000458 0.000000458 1 65535 65535 65535 4294836225
1139	59677 26 178 178 0.000000458 0.000000458 1 8940 8940 8940 79923600
1140	59703 28 178 178 0.000000458 0.000000458 1 0.3725 0.3725 0.3725 0.13875625
1136	59731 23 178 178 0.000000458 0.000000458 1 3 3 3 9
1143	59754 23 178 178 0.000000458 0.000000458 1 1 1 1 1
1151	59777 76 645 27199 0.0070001912 0.4070019656 3 0 0 0 0
1152	59853 76 645 27199 0.0070001912 0.4070019656 3 0 0 0 0
1153	59929 76 645 27199 0.0070001912 0.4070019656 3 0 0 0 0
1155	60005 24 150 150 0.0000001228 0.0000001228 1 0 0 0 0
1111	60029 27 178 178 0.000000458 0.000000458 1 65535 65535 65535 4294836225
1112	60056 26 178 178 0.000000458 0.000000458 1 8940 8940 8940 79923600
1113	60082 28 178 178 0.000000458 0.000000458 1 0.3725 0.3725 0.3725 0.13875625
1109	60110 23 178 178 0.000000458 0.000000458 1 3 3 3 9
1116	60133 23 178 178 0.000000458 0.000000458 1 1 1 1 1
1124	60156 76 645 27199 0.0070001912 0.4070019656 3 0 0 0 0
1125	60232 76 645 27199 0.0070001912 0.4070019656 3 0 0 0 0
1126	60308 76 645 27199 0.0070001912 0.4070019656 3 0 0 0 0
1128	60384 24 150 150 0.0000001228 0.0000001228 1 0 0 0 0
1165	60408 57 178 79481 0.000000458 1.2070005104 2 65535 65535 131070 8589672450
1166	60465 55 178 79481 0.000000458 1.2070005104 2 8940 8940 17880 159847200
1167	60520 58 178 79481 0.000000458 1.2070005104 2 0.3725 23.84 24.2125 568.48435625
1163	60578 123 178 27199 0.000000458 0.4070019656 5 1 3 7 13
1164	60701 138 255 27199 0.0000006744 0.4070019656 4 1.912e-07 0.2000014552 0.400002182 0.080000709762303
1168	60839 2583 593 13328 0.007 0.2070005104 90 2000 2089 184005 376258965
1172	63422 48 273 287 0.0000007624 0.0000008064 2 1 2 3 5
1171	63470 48 273 287 0.0000007624 0.0000008064 2 1 2 3 5
1173	63518 48 255 265 0.0000006744 0.0000007184 2 1 2 3 5
1174	63566 4872 593 27199 0.007 0.4070019656 180 0 160 12964 1367400
1175	68438 4872 593 27199 0.007 0.4070019656 180 0 160 12964 1367400
1178	73310 76 645 27199 0.0070001912 0.4070019656 3 0 0 0 0
1179	73386 76 645 27199 0.0070001912 0.4070019656 3 0 0 0 0
1180	73462 76 645 27199 0.0070001912 0.4070019656 3 0 0 0 0
1181	73538 76 645 27199 0.0070001912 0.4070019656 3 0 0 0 0
1182	73614 24 150 150 0.0000001228 0.0000001228 1 0 0 0 0
1185	73638 85 645 27199 0.0070001912 0.4070019656 3 2000 2089 6098 12400002
1187	73723 76 645 27199 0.0070001912 0.4070019656 3 0 0 0 0
1188	73799 76 645 27199 0.0070001912 0.4070019656 3 0 0 0 0
1304	73875 76 645 27199 0.0070001912 0.4070019656 3 0 0 0 0
1305	73951 4054 593 13328 0.007 0.2070005104 180 0 80 6482 341850
848	78005 4692 593 27199 0.007 0.4070019656 180 0 160 12964 1367400
847	82697 4692 593 27199 0.007 0.4070019656 180 0 160 12964 1367400
849	87389 73 645 27199 0.0070001912 0.4070019656 3 0 0 0 0
850	87462 73 645 27199 0.0070001912 0.4070019656 3 0 0 0 0
859	87535 85 645 27199 0.0070001912 0.4070019656 3 65533 65535 196603 12884246539
860	87620 112 150 27199 0.0000001228 0.4070019656 4 65533 65535 262138 17179082764
863	87732 12 123 123 0 0 1 0 0 0 0
1005	87744 24 149 149 0.0000001228 0.0000001228 1 0 0 0 0
1273	87768 28 236 236 0.0000006304 0.0000006304 1 65535 65535 65535 4294836225
1274	87796 27 236 236 0.0000006304 0.0000006304 1 8940 8940 8940 79923600
1275	87823 29 236 236 0.0000006304 0.0000006304 1 0.3725 0.3725 0.3725 0.13875625
1271	87852 24 236 236 0.0000006304 0.0000006304 1 3 3 3 9
1278	87876 24 236 236 0.0000006304 0.0000006304 1 1 1 1 1
1290	87900 24 164 164 0.0000003096 0.0000003096 1 0 0 0 0
1246	87924 28 236 236 0.0000006304 0.0000006304 1 65535 65535 65535 4294836225
1247	87952 27 236 236 0.0000006304 0.0000006304 1 8940 8940 8940 79923600
1248	87979 29 236 236 0.0000006304 0.0000006304 1 0.3725 0.3725 0.3725 0.13875625
1244	88008 24 236 236 0.0000006304 0.0000006304 1 3 3 3 9
1251	88032 24 236 236 0.0000006304 0.0000006304 1 1 1 1 1
1263	88056 24 164 164 0.0000003096 0.0000003096 1 0 0 0 0
959	88080 27 236 236 0.0000006304 0.0000006304 1 65535 65535 65535 4294836225
960	88107 26 236 236 0.0000006304 0.0000006304 1 8940 8940 8940 79923600
961	88133 28 236 236 0.0000006304 0.0000006304 1 0.3725 0.3725 0.3725 0.13875625
957	88161 46 236 301 0.0000006304 0.0000008564 2 1 3 4 10
958	88207 30 301 301 0.0000008564 0.0000008564 1 2.26e-07 2.26e-07 2.26e-07 5.1076e-14
963	88237 2500 633 13335 0.0070000972 0.2070018716 90 2000 2089 184005 376258965
966	90737 44 208 222 0.000000552 0.000000596 2 1 2 3 5
965	90781 44 208 222 0.000000552 0.000000596 2 1 2 3 5
967	90825 46 301 307 0.0000008564 0.0000009004 2 1 2 3 5
976	90871 12 132 132 0 0 1 0 0 0 0
935	90883 85 633 27192 0.0070000972 0.4070018716 3 65533 65535 196603 12884246539
939	90968 2306 633 27192 0.0070000972 0.4070018716 93 0 160 182 25932
944	93274 73 633 27192 0.0070000972 0.4070018716 3 0 0 0 0
945	93347 73 633 27192 0.0070000972 0.4070018716 3 0 0 0 0
946	93420 73 633 27192 0.0070000972 0.4070018716 3 0 0 0 0
947	93493 73 633 27192 0.0070000972 0.4070018716 3 0 0 0 0
948	93566 73 633 27192 0.0070000972 0.4070018716 3 0 0 0 0
949	93639 73 633 27192 0.0070000972 0.4070018716 3 0 0 0 0
950	93712 73 633 27192 0.0070000972 0.4070018716 3 0 0 0 0
951	93785 76 633 27192 0.0070000972 0.4070018716 3 16 16 48 768
953	93861 27 164 164 0.0000003096 0.0000003096 1 65535 65535 65535 4294836225
955	93888 3029 636 13416 0.0070000972 0.2070018716 90 9.72e-08 1.3612e-06 0.00011102 1.486951184e-10
956	96917 12 132 132 0 0 1 0 0 0 0
1035	96929 27 177 177 0.000000458 0.000000458 1 65535 65535 65535 4294836225
1036	96956 26 177 177 0.000000458 0.000000458 1 8940 8940 8940 79923600
1037	96982 28 177 177 0.000000458 0.000000458 1 0.3725 0.3725 0.3725 0.13875625
1033	97010 23 177 177 0.000000458 0.000000458 1 3 3 3 9
1040	97033 23 177 177 0.000000458 0.000000458 1 1 1 1 1
1048	97056 77 3483 30480 0.0570001912 0.4570019656 3 0 0 0 0
1049	97133 77 3483 30480 0.0570001912 0.4570019656 3 0 0 0 0
1050	97210 77 3483 30480 0.0570001912 0.4570019656 3 0 0 0 0
1052	97287 24 149 149 0.0000001228 0.0000001228 1 0 0 0 0
1008	97311 27 177 177 0.000000458 0.000000458 1 65535 65535 65535 4294836225
1009	97338 26 177 177 0.000000458 0.000000458 1 8940 8940 8940 79923600
1010	97364 28 177 177 0.000000458 0.000000458 1 0.3725 0.3725 0.3725 0.13875625
1006	97392 23 177 177 0.000000458 0.000000458 1 3 3 3 9
1013	97415 23 177 177 0.000000458 0.000000458 1 1 1 1 1
1021	97438 77 3483 30480 0.0570001912 0.4570019656 3 0 0 0 0
1022	97515 77 3483 30480 0.0570001912 0.4570019656 3 0 0 0 0
1023	97592 77 3483 30480 0.0570001912 0.4570019656 3 0 0 0 0
1025	97669 24 149 149 0.0000001228 0.0000001228 1 0 0 0 0
1062	97693 57 177 82768 0.000000458 1.2570005104 2 65535 65535 131070 8589672450
1063	97750 55 177 82768 0.000000458 1.2570005104 2 8940 8940 17880 159847200
1064	97805 58 177 82768 0.000000458 1.2570005104 2 0.3725 23.84 24.2125 568.48435625
1060	97863 124 177 30480 0.000000458 0.4570019656 5 1 3 7 13
1061	97987 139 256 30480 0.0000006744 0.4570019656 4 1.912e-07 0.2000014552 0.400002182 0.080000709762303
1065	98126 2593 3413 16984 0.057 0.2570005104 90 2000 2089 184005 376258965
1069	100719 48 274 288 0.0000007624 0.0000008064 2 1 2 3 5
1068	100767 48 274 288 0.0000007624 0.0000008064 2 1 2 3 5
1070	100815 48 256 266 0.0000006744 0.0000007184 2 1 2 3 5
1071	100863 4883 3413 30480 0.057 0.4570019656 180 0 160 12964 1367400
1072	105746 4883 3413 30480 0.057 0.4570019656 180 0 160 12964 1367400
1075	110629 77 3483 30480 0.0570001912 0.4570019656 3 0 0 0 0
1076	110706 77 3483 30480 0.0570001912 0.4570019656 3 0 0 0 0
1077	110783 77 3483 30480 0.0570001912 0.4570019656 3 0 0 0 0
1078	110860 77 3483 30480 0.0570001912 0.4570019656 3 0 0 0 0
1079	110937 24 149 149 0.0000001228 0.0000001228 1 0 0 0 0
1082	110961 86 3483 30480 0.0570001912 0.4570019656 3 2000 2089 6098 12400002
1084	111047 77 3483 30480 0.0570001912 0.4570019656 3 0 0 0 0
1085	111124 77 3483 30480 0.0570001912 0.4570019656 3 0 0 0 0
1300	111201 77 3483 30480 0.0570001912 0.4570019656 3 0 0 0 0
1301	111278 4084 3413 16984 0.057 0.2570005104 180 0 80 6482 341850
870	115362 4703 3413 30480 0.057 0.4570019656 180 0 160 12964 1367400
869	120065 4703 3413 30480 0.057 0.4570019656 180 0 160 12964 1367400
871	124768 74 3483 30480 0.0570001912 0.4570019656 3 0 0 0 0
872	124842 74 3483 30480 0.0570001912 0.4570019656 3 0 0 0 0
881	124916 86 3483 30480 0.0570001912 0.4570019656 3 65533 65535 196603 12884246539
882	125002 113 149 30480 0.0000001228 0.4570019656 4 65533 65535 262138 17179082764
885	125115 12 128 128 0 0 1 0 0 0 0
8	125127 8 0 0 0 0 1 0 0 0 0
9	125135 8 0 0 0 0 1 0 0 0 0
24	125143 9 0 0 0 0 1 0 0 0 0
25	125152 9 0 0 0 0 1 0 0 0 0
35	125161 9 0 0 0 0 1 0 0 0 0
36	125170 9 0 0 0 0 1 0 0 0 0
56	125179 9 0 0 0 0 1 0 0 0 0
57	125188 9 0 0 0 0 1 0 0 0 0
67	125197 9 0 0 0 0 1 0 0 0 0
68	125206 9 0 0 0 0 1 0 0 0 0
78	125215 9 0 0 0 0 1 0 0 0 0
79	125224 9 0 0 0 0 1 0 0 0 0
96	125233 925604 378 715390 0.002 10 52386 0 0 0 0
98	1050837 362626 1256 715381 0.02 10 20555 0 0 0 0
99	1413463 76 201736 646972 3.073 9.078 4 14 14 56 784
100	1413539 55569 1987 715368 0.035 10 2646 1 2646 3501981 6178661811
101	1469108 304689 1256 715381 0.02 10 13925 1 13925 96959775 900142231175
106	1773797 684475 1256 715390 0.02 10 33052 521 521 17220092 8971667932
108	2458272 49716 4412 715150 0.072 9.997 2638 1 2 5269 10531
109	2507988 273665 5780 715390 0.093 10 13843 14 17 231157 3862903
111	2781653 769072 1256 715390 0.02 10 34380 1 34380 591009390 13546132221930
112	3550725 711418 1256 715390 0.02 10 34380 192 193 6623400 1276023720
113	4262143 642658 1256 715390 0.02 10 34380 0 0 0 0
115	4904801 24992 5813 715307 0.094 9.999 1326 2 8 2676 5544
120	4929793 10 0 0 0 0 1 0 0 0 0
121	4929803 10 0 0 0 0 1 0 0 0 0
128	4929813 421 139 30475 0 0.4570018716 18 36 1632 2824 2785120
130	4930234 438 139 30475 0 0.4570018716 18 0 8.8e-08 3.088e-07 1.946112e-14
131	4930672 280 0 258 0 0.0000007124 13 0 2 10 14
132	4930952 828 0 30477 0 0.4570019156 37 0 1 18 18
133	4931780 423 141 30476 0 0.4570018716 18 43 1639 2950 2825538
134	4932203 442 146 27197 0.0000001228 0.4070019656 18 43 1639 2950 2825538
137	4932645 423 141 30476 0 0.4570018716 18 36 1632 2824 2785120
138	4933068 442 146 27197 0.0000001228 0.4070019656 18 36 1632 2824 2785120
141	4933510 2240 3476 17231 0.0570000972 0.2570018716 90 2 2 180 360
154	4935750 360769 3779 715365 0.062 10 19361 0 0 0 0
156	5296519 105190 3989 715365 0.065 10 5578 0 0 0 0
169	5401709 59505 3989 715365 0.065 10 2791 1 2791 3896236 7250895196
170	5461214 57821 3989 715365 0.065 10 2791 402 673 1732271 1083047197
171	5519035 52239 3989 715365 0.065 10 2791 0 0 0 0
178	5571274 10 0 0 0 0 1 0 0 0 0
179	5571284 10 0 0 0 0 1 0 0 0 0
186	5571294 422 140 27194 0 0.4070018716 18 36 1632 2824 2785120
188	5571716 439 140 27194 0 0.4070018716 18 0 8.8e-08 3.088e-07 1.946112e-14
189	5572155 280 0 257 0 0.0000007124 13 0 2 10 14
190	5572435 830 0 27196 0 0.4070019156 37 0 1 18 18
191	5573265 424 142 27195 0 0.4070018716 18 43 1639 2950 2825538
192	5573689 441 145 30478 0.0000001228 0.4570019656 18 43 1639 2950 2825538
195	5574130 424 142 27195 0 0.4070018716 18 36 1632 2824 2785120
196	5574554 441 145 30478 0.0000001228 0.4570019656 18 36 1632 2824 2785120
199	5574995 2230 638 13575 0.0070000972 0.2070018716 90 2 2 180 360
205	5577225 85 5422 647744 0.088784986169 9.088784986169 3 44 44 132 5808
208	5577310 85 5422 647744 0.088784986169 9.088784986169 3 45 45 135 6075
209	5577395 85 5425 647747 0.088784986169 9.088784986169 3 45 45 135 6075
210	5577480 435333 1650 715305 0.029 9.999 23183 0 0 0 0
212	6012813 422204 1650 715305 0.029 9.999 22482 0 0 0 0
217	6435017 720 1798 5601 0.031 0.091 41 1 41 861 23821
218	6435737 13568 6470 713774 0.104 9.979 656 1 656 215496 94315416
219	6449305 76 201801 647052 3.074 9.079 4 1 4 10 30
231	6449381 10 0 0 0 0 1 1 1 1 1
237	6449391 85 3956 645990 0.064770889489 9.064770889489 3 44 44 132 5808
240	6449476 85 3956 645990 0.064770889489 9.064770889489 3 45 45 135 6075
241	6449561 143 3959 646814 0.064770889489 9.075 6 45 47 276 12702
242	6449704 421975 1199 715387 0.019 10 22534 0 0 0 0
243	6871679 55 4247 646810 0.069 9.075 3 0 0 0 0
244	6871734 421056 1199 715387 0.019 10 22481 0 0 0 0
248	7292790 119 2052 4056 0.036 0.066 7 1 7 28 140
249	7292909 657 1283 3829 0.021 0.062 37 1 37 703 17575
263	7293566 10 0 0 0 0 1 1 1 1 1
269	7293576 85 1869 643572 0.032649362497 9.032649362497 3 44 44 132 5808
272	7293661 85 1869 643572 0.032649362497 9.032649362497 3 45 45 135 6075
273	7293746 85 1872 643575 0.032649362497 9.032649362497 3 45 45 135 6075
274	7293831 100267 1122 715362 0.018 10 5367 0 0 0 0
276	7394098 137830 1122 715362 0.018 10 7361 0 0 0 0
282	7531928 42350 1877 715162 0.033 9.998 1990 1 1990 1981045 2628846715
283	7574278 76 201742 646978 3.073 9.078 4 1 4 10 30
295	7574354 10 0 0 0 0 1 1 1 1 1
301	7574364 85 2066 643853 0.036651693161 9.036651693161 3 44 44 132 5808
304	7574449 85 2066 643853 0.036651693161 9.036651693161 3 45 45 135 6075
305	7574534 85 2069 643856 0.036651693161 9.036651693161 3 45 45 135 6075
306	7574619 26391 200709 715302 3.059 9.999 1389 0 0 0 0
308	7601010 52926 2125 715302 0.037 9.999 2786 0 0 0 0
315	7653936 29619 2125 715110 0.037 9.997 1397 1 1397 976503 909775295
327	7683555 163 0 6569 0 0.105 10 1 2 19 37
333	7683718 85 3540 645467 0.057963030662 9.057963030662 3 44 44 132 5808
336	7683803 85 3540 645467 0.057963030662 9.057963030662 3 45 45 135 6075
337	7683888 85 3543 645470 0.057963030662 9.057963030662 3 45 45 135 6075
338	7683973 26467 199260 715245 3.038 9.998 1393 0 0 0 0
340	7710440 52875 3551 715245 0.058 9.998 2783 0 0 0 0
347	7763315 29471 3551 715165 0.058 9.998 1390 1 1390 966745 896172615
359	7792786 163 0 6570 0 0.105 10 1 2 19 37
365	7792949 82 5957 648360 0.09658703896 9.09658703896 3 44 44 132 5808
368	7793031 82 5957 648360 0.09658703896 9.09658703896 3 45 45 135 6075
369	7793113 26302 5960 715037 0.09658703896 9.996 1383 0 45 135 6075
370	7819415 51721 6208 715357 0.099 10 2763 0 0 0 0
371	7871136 26220 203719 715033 3.101 9.996 1380 0 0 0 0
372	7897356 26256 5989 715113 0.097 9.997 1382 0 0 0 0
391	7923612 163 0 6571 0 0.105 10 1 2 19 37
397	7923775 82 1540 643099 0.02660460389 9.02660460389 3 44 44 132 5808
400	7923857 82 1540 643099 0.02660460389 9.02660460389 3 45 45 135 6075
401	7923939 82 1543 643102 0.02660460389 9.02660460389 3 45 45 135 6075
404	7924021 37579 1552 715115 0.027 9.997 1995 0 0 0 0
411	7961600 42457 1552 715115 0.027 9.997 1995 1 1995 1991010 2648706970
423	8004057 10 0 0 0 0 1 1 1 1 1
429	8004067 85 3301 645297 0.055890854003 9.055890854003 3 44 44 132 5808
432	8004152 85 3301 645297 0.055890854003 9.055890854003 3 45 45 135 6075
433	8004237 85 3304 645300 0.055890854003 9.055890854003 3 45 45 135 6075
436	8004322 37476 3314 715039 0.056 9.996 1989 0 0 0 0
443	8041798 42336 3314 715039 0.056 9.996 1989 1 1989 1979055 2624886615
455	8084134 10 0 0 0 0 1 1 1 1 1
461	8084144 85 2324 644177 0.040940929686 9.040940929686 3 44 44 132 5808
464	8084229 85 2324 644177 0.040940929686 9.040940929686 3 45 45 135 6075
465	8084314 85 2327 644180 0.040940929686 9.040940929686 3 45 45 135 6075
468	8084399 37527 2338 715041 0.041 9.996 1992 0 0 0 0
475	8121926 42396 2338 715041 0.041 9.996 1992 1 1992 1985028 2636778860
487	8164322 10 0 0 0 0 1 1 1 1 1
493	8164332 85 4820 647109 0.079275280847 9.079275280847 3 44 44 132 5808
496	8164417 85 4820 647109 0.079275280847 9.079275280847 3 45 45 135 6075
497	8164502 85 4823 647112 0.079275280847 9.079275280847 3 45 45 135 6075
500	8164587 36298 4835 715342 0.08 10 1985 0 0 0 0
507	8200885 41146 4835 715342 0.08 10 1985 1 1985 1971105 2609085985
519	8242031 10 0 0 0 0 1 1 1 1 1
525	8242041 85 5032 647304 0.082257983647 9.082257983647 3 44 44 132 5808
528	8242126 85 5032 647304 0.082257983647 9.082257983647 3 45 45 135 6075
529	8242211 85 5035 647307 0.082257983647 9.082257983647 3 45 45 135 6075
532	8242296 37393 5049 715172 0.083 9.998 1984 0 0 0 0
539	8279689 42238 5049 715172 0.083 9.998 1984 1 1984 1969120 2605145760
551	8321927 10 0 0 0 0 1 1 1 1 1
557	8321937 82 2806 644768 0.04821039218 9.04821039218 3 44 44 132 5808
560	8322019 82 2806 644768 0.04821039218 9.04821039218 3 45 45 135 6075
561	8322101 82 2809 644771 0.04821039218 9.04821039218 3 45 45 135 6075
564	8322183 37512 2873 715285 0.049 9.999 1991 0 0 0 0
571	8359695 42378 2873 715285 0.049 9.999 1991 1 1991 1983036 2632810796
583	8402073 10 0 0 0 0 1 1 1 1 1
589	8402083 85 1617 643227 0.028371024961 9.028371024961 3 44 44 132 5808
592	8402168 85 1617 643227 0.028371024961 9.028371024961 3 45 45 135 6075
593	8402253 26571 1620 715179 0.028371024961 9.998 1397 0 45 135 6075
594	8428824 105052 198712 715371 3.031 10 5570 0 0 0 0
595	8533876 26486 198859 715175 3.033 9.998 1394 0 0 0 0
596	8560362 78687 1635 715371 0.029 10 4183 0 0 0 0
603	8639049 102 1635 3162 0.029 0.054 6 1 6 21 91
615	8639151 163 0 6572 0 0.105 10 1 2 19 37
621	8639314 85 1048 642288 0.016038050947 9.016038050947 3 44 44 132 5808
624	8639399 85 1048 642288 0.016038050947 9.016038050947 3 45 45 135 6075
625	8639484 125 1051 642653 0.016038050947 9.021 5 45 47 229 10493
626	8639609 74 197868 642593 3.019 9.02 4 0 0 0 0
627	8639683 38 198003 642649 3.021 9.021 2 0 0 0 0
628	8639721 174 1067 642311 0.017 9.017 10 0 0 0 0
635	8639895 136 1067 3054 0.017 0.052 8 1 8 36 204
647	8640031 163 0 6573 0 0.105 10 1 2 19 37
653	8640194 85 1575 643159 0.027878343419 9.027878343419 3 44 44 132 5808
656	8640279 85 1575 643159 0.027878343419 9.027878343419 3 45 45 135 6075
657	8640364 125 1578 643484 0.027878343419 9.032 5 45 47 229 10493
658	8640489 74 198638 643432 3.03 9.031 4 0 0 0 0
659	8640563 38 198747 643480 3.032 9.032 2 0 0 0 0
660	8640601 140 1595 643186 0.028 9.028 8 0 0 0 0
667	8640741 102 1595 3096 0.028 0.053 6 1 6 21 91
679	8640843 163 0 6574 0 0.105 10 1 2 19 37
685	8641006 85 1954 643702 0.034516076937 9.034516076937 3 44 44 132 5808
688	8641091 85 1954 643702 0.034516076937 9.034516076937 3 45 45 135 6075
689	8641176 125 1957 644073 0.034516076937 9.039 5 45 47 229 10493
690	8641301 76 199159 644021 3.037 9.038 4 0 0 0 0
691	8641377 38 199302 644069 3.039 9.039 2 0 0 0 0
692	8641415 121 1975 643724 0.035 9.035 7 0 0 0 0
699	8641536 83 1975 3263 0.035 0.055 5 1 5 15 55
711	8641619 163 0 6575 0 0.105 10 1 2 19 37
717	8641782 85 3910 645921 0.063891002787 9.063891002787 3 44 44 132 5808
720	8641867 85 3910 645921 0.063891002787 9.063891002787 3 45 45 135 6075
721	8641952 125 3913 646252 0.063891002787 9.068 5 45 47 229 10493
722	8642077 509 4054 647297 0.066 9.082 27 0 0 0 0
723	8642586 38 201370 646248 3.068 9.068 2 0 0 0 0
724	8642624 471 3933 647297 0.064 9.082 25 0 0 0 0
743	8643095 163 0 6576 0 0.105 10 1 2 19 37
749	8643258 85 5414 647737 0.088577514598 9.088577514598 3 44 44 132 5808
752	8643343 85 5414 647737 0.088577514598 9.088577514598 3 45 45 135 6075
753	8643428 125 5417 648112 0.088577514598 9.093 5 45 47 229 10493
754	8643553 319 5593 648060 0.091 9.092 17 0 0 0 0
755	8643872 38 203160 648108 3.093 9.093 2 0 0 0 0
756	8643910 281 5447 647771 0.089 9.089 15 0 0 0 0
775	8644191 163 0 6577 0 0.105 10 1 2 19 37
781	8644354 85 1288 642695 0.021540784608 9.021540784608 3 44 44 132 5808
784	8644439 85 1288 642695 0.021540784608 9.021540784608 3 45 45 135 6075
785	8644524 125 1291 643013 0.021540784608 9.026 5 45 47 229 10493
786	8644649 76 198208 642947 3.024 9.025 4 0 0 0 0
787	8644725 38 198319 643009 3.026 9.026 2 0 0 0 0
788	8644763 157 1313 642722 0.022 9.022 9 0 0 0 0
795	8644920 119 1313 3060 0.022 0.052 7 1 7 28 140
807	8645039 163 0 6578 0 0.105 10 1 2 19 37
813	8645202 85 5949 648353 0.096236986774 9.096236986774 3 44 44 132 5808
816	8645287 85 5949 648353 0.096236986774 9.096236986774 3 45 45 135 6075
817	8645372 85 5952 648356 0.096236986774 9.096236986774 3 45 45 135 6075
820	8645457 37342 6005 715129 0.097 9.997 1981 0 0 0 0
827	8682799 42178 6005 715129 0.097 9.997 1981 1 1981 1963171 2593348891
839	8724977 10 0 0 0 0 1 1 1 1 1
1319	8724987 94 1045 642285 0.016038050947 9.016038050947 3 7504 7504 22512 168930048
1320	8725081 94 1045 642285 0.016038050947 9.016038050947 3 7504 7504 22512 168930048
1322	8725175 85 1045 642285 0.016038050947 9.016038050947 3 0 0 0 0
1333	8725260 85 1045 642285 0.016038050947 9.016038050947 3 0 0 0 0
1343	8725345 94 1285 642692 0.021540784608 9.021540784608 3 7504 7504 22512 168930048
1344	8725439 94 1285 642692 0.021540784608 9.021540784608 3 7504 7504 22512 168930048
1346	8725533 85 1285 642692 0.021540784608 9.021540784608 3 0 0 0 0
1357	8725618 85 1285 642692 0.021540784608 9.021540784608 3 0 0 0 0
1367	8725703 91 1537 643096 0.02660460389 9.02660460389 3 7504 7504 22512 168930048
1368	8725794 91 1537 643096 0.02660460389 9.02660460389 3 7504 7504 22512 168930048
1370	8725885 82 1537 643096 0.02660460389 9.02660460389 3 0 0 0 0
1381	8725967 82 1537 643096 0.02660460389 9.02660460389 3 0 0 0 0
1391	8726049 94 1572 643156 0.027878343419 9.027878343419 3 7504 7504 22512 168930048
1392	8726143 94 1572 643156 0.027878343419 9.027878343419 3 7504 7504 22512 168930048
1394	8726237 85 1572 643156 0.027878343419 9.027878343419 3 0 0 0 0
1405	8726322 85 1572 643156 0.027878343419 9.027878343419 3 0 0 0 0
1415	8726407 94 1614 643224 0.028371024961 9.028371024961 3 7504 7504 22512 168930048
1416	8726501 94 1614 643224 0.028371024961 9.028371024961 3 7504 7504 22512 168930048
1418	8726595 85 1614 643224 0.028371024961 9.028371024961 3 0 0 0 0
1429	8726680 85 1614 643224 0.028371024961 9.028371024961 3 0 0 0 0
1439	8726765 94 1866 643569 0.032649362497 9.032649362497 3 7504 7504 22512 168930048
1440	8726859 94 1866 643569 0.032649362497 9.032649362497 3 7504 7504 22512 168930048
1442	8726953 85 1866 643569 0.032649362497 9.032649362497 3 0 0 0 0
1453	8727038 85 1866 643569 0.032649362497 9.032649362497 3 0 0 0 0
1463	8727123 94 1951 643699 0.034516076937 9.034516076937 3 7504 7504 22512 168930048
1464	8727217 94 1951 643699 0.034516076937 9.034516076937 3 7504 7504 22512 168930048
1466	8727311 85 1951 643699 0.034516076937 9.034516076937 3 0 0 0 0
1477	8727396 85 1951 643699 0.034516076937 9.034516076937 3 0 0 0 0
1487	8727481 94 2063 643850 0.036651693161 9.036651693161 3 7504 7504 22512 168930048
1488	8727575 94 2063 643850 0.036651693161 9.036651693161 3 7504 7504 22512 168930048
1490	8727669 85 2063 643850 0.036651693161 9.036651693161 3 0 0 0 0
1501	8727754 85 2063 643850 0.036651693161 9.036651693161 3 0 0 0 0
1511	8727839 94 2321 644174 0.040940929686 9.040940929686 3 7504 7504 22512 168930048
1512	8727933 94 2321 644174 0.040940929686 9.040940929686 3 7504 7504 22512 168930048
1514	8728027 85 2321 644174 0.040940929686 9.040940929686 3 0 0 0 0
1525	8728112 85 2321 644174 0.040940929686 9.040940929686 3 0 0 0 0
1535	8728197 91 2803 644765 0.04821039218 9.04821039218 3 7504 7504 22512 168930048
1536	8728288 91 2803 644765 0.04821039218 9.04821039218 3 7504 7504 22512 168930048
1538	8728379 82 2803 644765 0.04821039218 9.04821039218 3 0 0 0 0
1549	8728461 82 2803 644765 0.04821039218 9.04821039218 3 0 0 0 0
1559	8728543 94 3298 645294 0.055890854003 9.055890854003 3 7504 7504 22512 168930048
1560	8728637 94 3298 645294 0.055890854003 9.055890854003 3 7504 7504 22512 168930048
1562	8728731 85 3298 645294 0.055890854003 9.055890854003 3 0 0 0 0
1573	8728816 85 3298 645294 0.055890854003 9.055890854003 3 0 0 0 0
1583	8728901 94 3537 645464 0.057963030662 9.057963030662 3 7504 7504 22512 168930048
1584	8728995 94 3537 645464 0.057963030662 9.057963030662 3 7504 7504 22512 168930048
1586	8729089 85 3537 645464 0.057963030662 9.057963030662 3 0 0 0 0
1597	8729174 85 3537 645464 0.057963030662 9.057963030662 3 0 0 0 0
1607	8729259 94 3907 645918 0.063891002787 9.063891002787 3 7504 7504 22512 168930048
1608	8729353 94 3907 645918 0.063891002787 9.063891002787 3 7504 7504 22512 168930048
1610	8729447 85 3907 645918 0.063891002787 9.063891002787 3 0 0 0 0
1621	8729532 85 3907 645918 0.063891002787 9.063891002787 3 0 0 0 0
1631	8729617 94 3953 645987 0.064770889489 9.064770889489 3 7504 7504 22512 168930048
1632	8729711 94 3953 645987 0.064770889489 9.064770889489 3 7504 7504 22512 168930048
1634	8729805 85 3953 645987 0.064770889489 9.064770889489 3 0 0 0 0
1645	8729890 85 3953 645987 0.064770889489 9.064770889489 3 0 0 0 0
1655	8729975 94 4817 647106 0.079275280847 9.079275280847 3 7504 7504 22512 168930048
1656	8730069 94 4817 647106 0.079275280847 9.079275280847 3 7504 7504 22512 168930048
1658	8730163 85 4817 647106 0.079275280847 9.079275280847 3 0 0 0 0
1669	8730248 85 4817 647106 0.079275280847 9.079275280847 3 0 0 0 0
1679	8730333 94 5029 647301 0.082257983647 9.082257983647 3 7504 7504 22512 168930048
1680	8730427 94 5029 647301 0.082257983647 9.082257983647 3 7504 7504 22512 168930048
1682	8730521 85 5029 647301 0.082257983647 9.082257983647 3 0 0 0 0
1693	8730606 85 5029 647301 0.082257983647 9.082257983647 3 0 0 0 0
1703	8730691 94 5411 647734 0.088577514598 9.088577514598 3 7504 7504 22512 168930048
1704	8730785 94 5411 647734 0.088577514598 9.088577514598 3 7504 7504 22512 168930048
1706	8730879 85 5411 647734 0.088577514598 9.088577514598 3 0 0 0 0
1717	8730964 85 5411 647734 0.088577514598 9.088577514598 3 0 0 0 0
1727	8731049 94 5419 647741 0.088784986169 9.088784986169 3 7504 7504 22512 168930048
1728	8731143 94 5419 647741 0.088784986169 9.088784986169 3 7504 7504 22512 168930048
1730	8731237 85 5419 647741 0.088784986169 9.088784986169 3 0 0 0 0
1741	8731322 85 5419 647741 0.088784986169 9.088784986169 3 0 0 0 0
1751	8731407 94 5946 648350 0.096236986774 9.096236986774 3 7504 7504 22512 168930048
1752	8731501 94 5946 648350 0.096236986774 9.096236986774 3 7504 7504 22512 168930048
1754	8731595 85 5946 648350 0.096236986774 9.096236986774 3 0 0 0 0
1765	8731680 85 5946 648350 0.096236986774 9.096236986774 3 0 0 0 0
1775	8731765 91 5954 648357 0.09658703896 9.09658703896 3 7504 7504 22512 168930048
1776	8731856 91 5954 648357 0.09658703896 9.09658703896 3 7504 7504 22512 168930048
1778	8731947 82 5954 648357 0.09658703896 9.09658703896 3 0 0 0 0
1789	8732029 82 5954 648357 0.09658703896 9.09658703896 3 0 0 0 0
