file 4826660 1580828054                                         
version 2
run CAIN-110-20200204-11:53:02-10133
attr configname CAIN
attr datetime 20200204-11:53:02
attr dist 210
attr experiment CAIN
attr inifile omnetpp.ini
attr iterationvars "$dist=210, $mob=\"./movements/RWPRPGM-0.5.movements\""
attr iterationvars2 "$dist=210, $mob=\"./movements/RWPRPGM-0.5.movements\", $repetition=5"
attr measurement "$dist=210, $mob=\"./movements/RWPRPGM-0.5.movements\""
attr mob "\"./movements/RWPRPGM-0.5.movements\""
attr network lte.simulations.networks.CAIN
attr processid 10133
attr repetition 5
attr replication #5
attr resultdir results
attr runnumber 110
attr seedset 5
param **.**.amcMode "\"AUTO\""
param **.amcMode "\"D2D\""
param **.cainNetwork true
param **.channelControl.alpha 1.0
param **.channelControl.carrierFrequency 2100e+6Hz
param **.channelControl.pMax 10W
param **.d2dCqi 7
param **.deployer.numRbDl 50
param **.deployer.numRbUl 50
param **.distThresh "${dist=200..260 step 10}"
param **.fbDelay 1
param **.feedbackComputation "xmldoc(\"config_channel.xml\")"
param **.mobility.constraintAreaMaxX 1000m
param **.mobility.constraintAreaMaxY 1000m
param **.mobility.constraintAreaMaxZ 0m
param **.mobility.constraintAreaMinX 0m
param **.mobility.constraintAreaMinY 0m
param **.mobility.constraintAreaMinZ 0m
param **.nic.phy.channelModel "xmldoc(\"config_channel.xml\")"
param **.numBands 50
param **.pwrThresh -10
param **.qtdThresh 3
param **.rbAllocationType "\"localized\""
param **.routingRecorder.enabled false
param **.tcpApp[*].tClose -1s
param **.ueD2DTx[*].mobility.changeAngleBy "normal(0deg, 30deg)"
param **.ueD2DTx[*].mobility.changeInterval "normal(5s, 0.1s)"
param **.ueD2DTx[*].mobility.nodeId -1
param **.ueD2DTx[*].mobility.speed "normal(2mps, 0.01mps)"
param **.ueD2DTx[*].mobility.traceFile "${mob=\"./movements/RWPRPGM-0.0.movements\",\"./movements/RWPRPGM-0.5.movements\"}"
param **.ueD2DTx[*].mobilityType "\"BonnMotionMobility\""
param **.usePreconfiguredTxParams false
param *.eNodeB.d2dCapable false
param *.eNodeB.mobility.initFromDisplayString false
param *.eNodeB.mobility.initialX 300m
param *.eNodeB.mobility.initialY 300m
param *.eNodeB.nic.phy.enableD2DCqiReporting true
param *.eNodeB.txPower 19952.62315mw
param *.numUeCell 0
param *.numUeD2DRx 1
param *.numUeD2DTx 1
param *.ue*.macCellId 1
param *.ue*.masterId 1
param *.ue*.mobility.initFromDisplayString false
param *.ue*[0].macCellId 1
param *.ue*[0].masterId 1
param *.ue*[0].mobility.initFromDisplayString false
param *.ueD2D*.numTcpApps 1
param *.ueD2D*[*].d2dCapable true
param *.ueD2D*[0].d2dCapable false
param *.ueD2D*[0].numTcpApps 1
param *.ueD2DRx[0].mobility.initialX 310m
param *.ueD2DRx[0].mobility.initialY 350m
param *.ueD2DRx[0].tcpApp[*].localPort 1000
param *.ueD2DRx[0].tcpApp[*].typename "\"TCPSinkApp\""
param *.ueD2DTx*.tcpApp[*].connectAddress "\"ueD2DTx[0]\""
param *.ueD2DTx*.tcpApp[*].localAddress "\"ueD2DTx\""
param *.ueD2DTx*.tcpApp[*].localPort 1000
param *.ueD2DTx*.tcpApp[*].sendBytes 1GiB
param *.ueD2DTx*.tcpApp[*].typename "\"TCPSessionApp\""
param *.ueD2DTx*.tcpApp[0].active true
param *.ueD2DTx*.tcpApp[0].connectPort 1000
param *.ueD2DTx*.tcpApp[0].tOpen uniform(0.010s,0.1s)
param *.ueD2DTx*.tcpApp[0].tSend uniform(0.15s,0.5s)
param *.ueD2DTx[0].mobility.initialX 290m
param *.ueD2DTx[0].mobility.initialY 350m
param *.ueD2DTx[0].nic.d2dPeerAddresses "\"ueD2DTx[1]\""
param *.ueD2DTx[0].tcpApp[*].localPort 1000
param *.ueD2DTx[0].tcpApp[*].sendBytes 1GiB
param *.ueD2DTx[0].tcpApp[*].typename "\"TCPSessionApp\""
param *.ueD2DTx[0].tcpApp[0].active true
param *.ueD2DTx[0].tcpApp[0].connectAddress "\"ueD2DRx[0]\""
param *.ueD2DTx[0].tcpApp[0].connectPort 1000
param *.ueD2DTx[0].tcpApp[0].localAddress "\"ueD2DTx[0]\""
param *.ueD2DTx[0].tcpApp[0].tOpen uniform(0.010s,0.1s)
param *.ueD2DTx[0].tcpApp[0].tSend uniform(0.15s,0.5s)
param *.ueD2DTx[1].nic.d2dPeerAddresses "\"ueD2DTx[0]\""

vector 8  CAIN.server.ppp[0].queue  queueLength:vector  ETV
attr interpolationmode  sample-hold
attr title  "queue length, vector"
vector 9  CAIN.server.ppp[0].ppp  txState:vector  ETV
attr interpolationmode  sample-hold
attr title  "tx state, vector"
vector 24  CAIN.router.ppp[0].queue  queueLength:vector  ETV
attr interpolationmode  sample-hold
attr title  "queue length, vector"
vector 25  CAIN.router.ppp[0].ppp  txState:vector  ETV
attr interpolationmode  sample-hold
attr title  "tx state, vector"
vector 35  CAIN.router.ppp[1].queue  queueLength:vector  ETV
attr interpolationmode  sample-hold
attr title  "queue length, vector"
vector 36  CAIN.router.ppp[1].ppp  txState:vector  ETV
attr interpolationmode  sample-hold
attr title  "tx state, vector"
vector 56  CAIN.pgw.ppp[0].queue  queueLength:vector  ETV
attr interpolationmode  sample-hold
attr title  "queue length, vector"
vector 57  CAIN.pgw.ppp[0].ppp  txState:vector  ETV
attr interpolationmode  sample-hold
attr title  "tx state, vector"
vector 67  CAIN.pgw.pppInterface.queue  queueLength:vector  ETV
attr interpolationmode  sample-hold
attr title  "queue length, vector"
vector 68  CAIN.pgw.pppInterface.ppp  txState:vector  ETV
attr interpolationmode  sample-hold
attr title  "tx state, vector"
vector 104  CAIN.eNodeB.pppIf.queue  queueLength:vector  ETV
attr interpolationmode  sample-hold
attr title  "queue length, vector"
vector 105  CAIN.eNodeB.pppIf.ppp  txState:vector  ETV
attr interpolationmode  sample-hold
attr title  "tx state, vector"
vector 138  CAIN.ueD2DTx[0].nic.phy  servingCell:vector  ETV
attr source  servingCell
attr title  "ID of the serving eNodeB for the UE, vector"
attr unit  ""
vector 165  CAIN.ueD2DTx[1].nic.phy  servingCell:vector  ETV
attr source  servingCell
attr title  "ID of the serving eNodeB for the UE, vector"
attr unit  ""
vector 192  CAIN.ueD2DTx[2].nic.phy  servingCell:vector  ETV
attr source  servingCell
attr title  "ID of the serving eNodeB for the UE, vector"
attr unit  ""
vector 219  CAIN.ueD2DTx[3].nic.phy  servingCell:vector  ETV
attr source  servingCell
attr title  "ID of the serving eNodeB for the UE, vector"
attr unit  ""
vector 246  CAIN.ueD2DTx[4].nic.phy  servingCell:vector  ETV
attr source  servingCell
attr title  "ID of the serving eNodeB for the UE, vector"
attr unit  ""
vector 85  CAIN.eNodeB.nic.mac  receivedPacketFromLowerLayer:vector(packetBytes)  ETV
attr interpolationmode  none
attr source  receivedPacketFromLowerLayer
vector 264  CAIN.ueD2DTx[4].tcp  tcpRcvQueueBytes  ETV
vector 251  CAIN.ueD2DTx[4].tcp  "advertised window"  ETV
vector 250  CAIN.ueD2DTx[4].tcp  "receive window"  ETV
vector 253  CAIN.ueD2DTx[4].tcp  "sent ack"  ETV
vector 225  CAIN.ueD2DTx[4].nic.pdcpRrc  receivedPacketFromUpperLayer:vector(packetBytes)  ETV
attr interpolationmode  none
attr source  receivedPacketFromUpperLayer
vector 228  CAIN.ueD2DTx[4].nic.pdcpRrc  sentPacketToLowerLayer:vector(packetBytes)  ETV
attr interpolationmode  none
attr source  sentPacketToLowerLayer
vector 229  CAIN.ueD2DTx[4].nic.mac  receivedPacketFromUpperLayer:vector(packetBytes)  ETV
attr interpolationmode  none
attr source  receivedPacketFromUpperLayer
vector 232  CAIN.ueD2DTx[4].nic.mac  sentPacketToLowerLayer:vector(packetBytes)  ETV
attr interpolationmode  none
attr source  sentPacketToLowerLayer
vector 96  CAIN.eNodeB.nic.mac  racpkt:vector  ETV
attr interpolationmode  none
attr title  "eNB received racpkt message, vector"
vector 97  CAIN.eNodeB.nic.mac  racDistanceSignal:vector  ETV
attr interpolationmode  none
attr title  "Rac distance to enb, vector"
vector 87  CAIN.eNodeB.nic.mac  sentPacketToLowerLayer:vector(packetBytes)  ETV
attr interpolationmode  none
attr source  sentPacketToLowerLayer
vector 149  CAIN.ueD2DTx[1].nic.mac  receivedPacketFromLowerLayer:vector(packetBytes)  ETV
attr interpolationmode  none
attr source  receivedPacketFromLowerLayer
vector 160  CAIN.ueD2DTx[1].nic.mac  racpkt:vector  ETV
attr interpolationmode  none
attr title  "eNB received racpkt message, vector"
vector 161  CAIN.ueD2DTx[1].nic.mac  racDistanceSignal:vector  ETV
attr interpolationmode  none
attr title  "Rac distance to enb, vector"
vector 151  CAIN.ueD2DTx[1].nic.mac  sentPacketToLowerLayer:vector(packetBytes)  ETV
attr interpolationmode  none
attr source  sentPacketToLowerLayer
vector 176  CAIN.ueD2DTx[2].nic.mac  receivedPacketFromLowerLayer:vector(packetBytes)  ETV
attr interpolationmode  none
attr source  receivedPacketFromLowerLayer
vector 187  CAIN.ueD2DTx[2].nic.mac  racpkt:vector  ETV
attr interpolationmode  none
attr title  "eNB received racpkt message, vector"
vector 188  CAIN.ueD2DTx[2].nic.mac  racDistanceSignal:vector  ETV
attr interpolationmode  none
attr title  "Rac distance to enb, vector"
vector 178  CAIN.ueD2DTx[2].nic.mac  sentPacketToLowerLayer:vector(packetBytes)  ETV
attr interpolationmode  none
attr source  sentPacketToLowerLayer
vector 122  CAIN.ueD2DTx[0].nic.mac  receivedPacketFromLowerLayer:vector(packetBytes)  ETV
attr interpolationmode  none
attr source  receivedPacketFromLowerLayer
vector 133  CAIN.ueD2DTx[0].nic.mac  racpkt:vector  ETV
attr interpolationmode  none
attr title  "eNB received racpkt message, vector"
vector 134  CAIN.ueD2DTx[0].nic.mac  racDistanceSignal:vector  ETV
attr interpolationmode  none
attr title  "Rac distance to enb, vector"
vector 124  CAIN.ueD2DTx[0].nic.mac  sentPacketToLowerLayer:vector(packetBytes)  ETV
attr interpolationmode  none
attr source  sentPacketToLowerLayer
vector 203  CAIN.ueD2DTx[3].nic.mac  receivedPacketFromLowerLayer:vector(packetBytes)  ETV
attr interpolationmode  none
attr source  receivedPacketFromLowerLayer
vector 214  CAIN.ueD2DTx[3].nic.mac  racpkt:vector  ETV
attr interpolationmode  none
attr title  "eNB received racpkt message, vector"
vector 215  CAIN.ueD2DTx[3].nic.mac  racDistanceSignal:vector  ETV
attr interpolationmode  none
attr title  "Rac distance to enb, vector"
vector 205  CAIN.ueD2DTx[3].nic.mac  sentPacketToLowerLayer:vector(packetBytes)  ETV
attr interpolationmode  none
attr source  sentPacketToLowerLayer
vector 230  CAIN.ueD2DTx[4].nic.mac  receivedPacketFromLowerLayer:vector(packetBytes)  ETV
attr interpolationmode  none
attr source  receivedPacketFromLowerLayer
vector 241  CAIN.ueD2DTx[4].nic.mac  racpkt:vector  ETV
attr interpolationmode  none
attr title  "eNB received racpkt message, vector"
vector 242  CAIN.ueD2DTx[4].nic.mac  racDistanceSignal:vector  ETV
attr interpolationmode  none
attr title  "Rac distance to enb, vector"
vector 93  CAIN.eNodeB.nic.mac  ServedDevs:vector  ETV
attr interpolationmode  none
attr title  "# of devices served on cain forwarding, vector"
vector 91  CAIN.eNodeB.nic.mac  DistanceSignal:vector  ETV
attr interpolationmode  none
attr title  "Distance to enb, vector"
vector 89  CAIN.eNodeB.nic.mac  CainMessage:vector  ETV
attr interpolationmode  none
attr title  "eNB received CAIN message, vector"
vector 288  CAIN.ueD2DTx[3].tcp  tcpRcvQueueBytes  ETV
vector 275  CAIN.ueD2DTx[3].tcp  "advertised window"  ETV
vector 274  CAIN.ueD2DTx[3].tcp  "receive window"  ETV
vector 277  CAIN.ueD2DTx[3].tcp  "sent ack"  ETV
vector 198  CAIN.ueD2DTx[3].nic.pdcpRrc  receivedPacketFromUpperLayer:vector(packetBytes)  ETV
attr interpolationmode  none
attr source  receivedPacketFromUpperLayer
vector 201  CAIN.ueD2DTx[3].nic.pdcpRrc  sentPacketToLowerLayer:vector(packetBytes)  ETV
attr interpolationmode  none
attr source  sentPacketToLowerLayer
vector 202  CAIN.ueD2DTx[3].nic.mac  receivedPacketFromUpperLayer:vector(packetBytes)  ETV
attr interpolationmode  none
attr source  receivedPacketFromUpperLayer
vector 92  CAIN.eNodeB.nic.mac  HopDistanceSignal:vector  ETV
attr interpolationmode  none
attr title  "Distance to enb with hop forwarding, vector"
vector 90  CAIN.eNodeB.nic.mac  CainHopMessage:vector  ETV
attr interpolationmode  none
attr title  "eNB received CAIN hop message, vector"
vector 204  CAIN.ueD2DTx[3].nic.mac  sentPacketToUpperLayer:vector(packetBytes)  ETV
attr interpolationmode  none
attr source  sentPacketToUpperLayer
vector 99  CAIN.eNodeB.nic.phy  averageCqiUlvect:vector  ETV
attr source  averageCqiUlvect
attr title  "Average Cqi reported in UL, vector"
attr unit  cqi
vector 312  CAIN.ueD2DTx[2].tcp  tcpRcvQueueBytes  ETV
vector 299  CAIN.ueD2DTx[2].tcp  "advertised window"  ETV
vector 298  CAIN.ueD2DTx[2].tcp  "receive window"  ETV
vector 301  CAIN.ueD2DTx[2].tcp  "sent ack"  ETV
vector 171  CAIN.ueD2DTx[2].nic.pdcpRrc  receivedPacketFromUpperLayer:vector(packetBytes)  ETV
attr interpolationmode  none
attr source  receivedPacketFromUpperLayer
vector 174  CAIN.ueD2DTx[2].nic.pdcpRrc  sentPacketToLowerLayer:vector(packetBytes)  ETV
attr interpolationmode  none
attr source  sentPacketToLowerLayer
vector 175  CAIN.ueD2DTx[2].nic.mac  receivedPacketFromUpperLayer:vector(packetBytes)  ETV
attr interpolationmode  none
attr source  receivedPacketFromUpperLayer
vector 86  CAIN.eNodeB.nic.mac  sentPacketToUpperLayer:vector(packetBytes)  ETV
attr interpolationmode  none
attr source  sentPacketToUpperLayer
vector 81  CAIN.eNodeB.nic.pdcpRrc  receivedPacketFromLowerLayer:vector(packetBytes)  ETV
attr interpolationmode  none
attr source  receivedPacketFromLowerLayer
vector 82  CAIN.eNodeB.nic.pdcpRrc  sentPacketToUpperLayer:vector(packetBytes)  ETV
attr interpolationmode  none
attr source  sentPacketToUpperLayer
vector 80  CAIN.eNodeB.nic.pdcpRrc  receivedPacketFromUpperLayer:vector(packetBytes)  ETV
attr interpolationmode  none
attr source  receivedPacketFromUpperLayer
vector 83  CAIN.eNodeB.nic.pdcpRrc  sentPacketToLowerLayer:vector(packetBytes)  ETV
attr interpolationmode  none
attr source  sentPacketToLowerLayer
vector 84  CAIN.eNodeB.nic.mac  receivedPacketFromUpperLayer:vector(packetBytes)  ETV
attr interpolationmode  none
attr source  receivedPacketFromUpperLayer
vector 88  CAIN.eNodeB.nic.mac  measuredItbs:vector  ETV
attr source  measuredItbs
attr title  "TBS index, vector"
attr unit  ""
vector 177  CAIN.ueD2DTx[2].nic.mac  sentPacketToUpperLayer:vector(packetBytes)  ETV
attr interpolationmode  none
attr source  sentPacketToUpperLayer
vector 189  CAIN.ueD2DTx[2].nic.phy  averageCqiDlvect:vector  ETV
attr source  averageCqiDlvect
attr title  "Average Cqi reported in DL, vector"
attr unit  cqi
vector 172  CAIN.ueD2DTx[2].nic.pdcpRrc  receivedPacketFromLowerLayer:vector(packetBytes)  ETV
attr interpolationmode  none
attr source  receivedPacketFromLowerLayer
vector 173  CAIN.ueD2DTx[2].nic.pdcpRrc  sentPacketToUpperLayer:vector(packetBytes)  ETV
attr interpolationmode  none
attr source  sentPacketToUpperLayer
vector 216  CAIN.ueD2DTx[3].nic.phy  averageCqiDlvect:vector  ETV
attr source  averageCqiDlvect
attr title  "Average Cqi reported in DL, vector"
attr unit  cqi
vector 199  CAIN.ueD2DTx[3].nic.pdcpRrc  receivedPacketFromLowerLayer:vector(packetBytes)  ETV
attr interpolationmode  none
attr source  receivedPacketFromLowerLayer
vector 200  CAIN.ueD2DTx[3].nic.pdcpRrc  sentPacketToUpperLayer:vector(packetBytes)  ETV
attr interpolationmode  none
attr source  sentPacketToUpperLayer
vector 336  CAIN.ueD2DTx[0].tcp  tcpRcvQueueBytes  ETV
vector 323  CAIN.ueD2DTx[0].tcp  "advertised window"  ETV
vector 322  CAIN.ueD2DTx[0].tcp  "receive window"  ETV
vector 325  CAIN.ueD2DTx[0].tcp  "sent ack"  ETV
vector 117  CAIN.ueD2DTx[0].nic.pdcpRrc  receivedPacketFromUpperLayer:vector(packetBytes)  ETV
attr interpolationmode  none
attr source  receivedPacketFromUpperLayer
vector 120  CAIN.ueD2DTx[0].nic.pdcpRrc  sentPacketToLowerLayer:vector(packetBytes)  ETV
attr interpolationmode  none
attr source  sentPacketToLowerLayer
vector 121  CAIN.ueD2DTx[0].nic.mac  receivedPacketFromUpperLayer:vector(packetBytes)  ETV
attr interpolationmode  none
attr source  receivedPacketFromUpperLayer
vector 123  CAIN.ueD2DTx[0].nic.mac  sentPacketToUpperLayer:vector(packetBytes)  ETV
attr interpolationmode  none
attr source  sentPacketToUpperLayer
vector 360  CAIN.ueD2DTx[1].tcp  tcpRcvQueueBytes  ETV
vector 347  CAIN.ueD2DTx[1].tcp  "advertised window"  ETV
vector 346  CAIN.ueD2DTx[1].tcp  "receive window"  ETV
vector 349  CAIN.ueD2DTx[1].tcp  "sent ack"  ETV
vector 144  CAIN.ueD2DTx[1].nic.pdcpRrc  receivedPacketFromUpperLayer:vector(packetBytes)  ETV
attr interpolationmode  none
attr source  receivedPacketFromUpperLayer
vector 147  CAIN.ueD2DTx[1].nic.pdcpRrc  sentPacketToLowerLayer:vector(packetBytes)  ETV
attr interpolationmode  none
attr source  sentPacketToLowerLayer
vector 148  CAIN.ueD2DTx[1].nic.mac  receivedPacketFromUpperLayer:vector(packetBytes)  ETV
attr interpolationmode  none
attr source  receivedPacketFromUpperLayer
vector 231  CAIN.ueD2DTx[4].nic.mac  sentPacketToUpperLayer:vector(packetBytes)  ETV
attr interpolationmode  none
attr source  sentPacketToUpperLayer
vector 135  CAIN.ueD2DTx[0].nic.phy  averageCqiDlvect:vector  ETV
attr source  averageCqiDlvect
attr title  "Average Cqi reported in DL, vector"
attr unit  cqi
vector 118  CAIN.ueD2DTx[0].nic.pdcpRrc  receivedPacketFromLowerLayer:vector(packetBytes)  ETV
attr interpolationmode  none
attr source  receivedPacketFromLowerLayer
vector 119  CAIN.ueD2DTx[0].nic.pdcpRrc  sentPacketToUpperLayer:vector(packetBytes)  ETV
attr interpolationmode  none
attr source  sentPacketToUpperLayer
8	17109 8 0 0 0 0 1 0 0 0 0
9	17117 8 0 0 0 0 1 0 0 0 0
24	17125 9 0 0 0 0 1 0 0 0 0
25	17134 9 0 0 0 0 1 0 0 0 0
35	17143 9 0 0 0 0 1 0 0 0 0
36	17152 9 0 0 0 0 1 0 0 0 0
56	17161 9 0 0 0 0 1 0 0 0 0
57	17170 9 0 0 0 0 1 0 0 0 0
67	17179 9 0 0 0 0 1 0 0 0 0
68	17188 9 0 0 0 0 1 0 0 0 0
80	17197 216 1041 252207 0.063 9.111 12 44 44 528 23232
81	17413 216 1036 252202 0.063 9.111 12 45 45 540 24300
82	17629 216 1036 252202 0.063 9.111 12 44 44 528 23232
83	17845 216 1041 252207 0.063 9.111 12 45 45 540 24300
84	18061 429 1044 252236 0.063 9.112 24 45 47 1104 50808
85	18490 393491 60 275386 0.002 9.998 22469 0 0 0 0
86	411981 417 1031 252232 0.063 9.112 24 0 47 564 26508
87	412398 176846 558 275359 0.049 9.998 10049 0 0 0 0
88	589244 213 1080 252232 0.064 9.112 12 26 26 312 8112
89	589457 249812 656 275386 0.053 9.998 12082 1 12082 72993403 587961861165
90	839269 81538 726 275386 0.055 9.998 4014 1 4014 8058105 21566175015
91	920807 158123 656 275339 0.053 9.996 8068 149 424 2359946 831457558
92	1078930 78631 726 275386 0.055 9.998 4014 221 224 891318 197921856
93	1157561 141987 656 275339 0.053 9.996 8068 1 3 21734 60264
96	1299548 123317 558 275386 0.049 9.998 6042 1 6042 18255903 73540862585
97	1422865 112382 558 275386 0.049 9.998 6042 44 223 360183 24675391
99	1535247 212 907 252086 0.06 9.108 12 11 15 176 2596
104	1535459 10 0 0 0 0 1 0 0 0 0
105	1535469 10 0 0 0 0 1 0 0 0 0
117	1535479 84 1568 250620 0.077904278447 9.077904278447 3 44 44 132 5808
118	1535563 57 3136 252354 0.116 9.116 3 45 45 135 6075
119	1535620 57 3136 252354 0.116 9.116 3 44 44 132 5808
120	1535677 84 1568 250620 0.077904278447 9.077904278447 3 45 45 135 6075
121	1535761 141 1571 250855 0.077904278447 9.082 6 45 47 276 12702
122	1535902 224150 602 275406 0.051 9.999 12053 0 0 0 0
123	1760052 111 1726 252350 0.082 9.116 6 0 47 141 6627
124	1760163 224150 602 275406 0.051 9.999 12053 0 0 0 0
133	1984313 261058 602 275406 0.051 9.999 12044 1 12044 72534990 582431791370
134	2245371 240046 602 275406 0.051 9.999 12044 44 224 1414501 235311561
135	2485417 57 3048 252266 0.113 9.113 3 15 15 45 675
138	2485474 10 0 0 0 0 1 1 1 1 1
144	2485484 84 1880 251074 0.085128808198 9.085128808198 3 44 44 132 5808
147	2485568 84 1880 251074 0.085128808198 9.085128808198 3 45 45 135 6075
148	2485652 84 1883 251077 0.085128808198 9.085128808198 3 45 45 135 6075
149	2485736 224007 581 275431 0.05 10 12163 0 0 0 0
151	2709743 262483 581 275431 0.05 10 14232 0 0 0 0
160	2972226 216703 581 275431 0.05 10 10180 1 10180 51821290 351711095230
161	3188929 199296 581 275431 0.05 10 10180 0 169 991093 160985843
165	3388225 10 0 0 0 0 1 1 1 1 1
171	3388235 83 945 249746 0.060104957663 9.060104957663 3 44 44 132 5808
172	3388318 114 1266 251328 0.068 9.091 6 45 45 270 12150
173	3388432 114 1266 251328 0.068 9.091 6 44 44 264 11616
174	3388546 83 945 249746 0.060104957663 9.060104957663 3 45 45 135 6075
175	3388629 140 948 250000 0.060104957663 9.065 6 45 47 276 12702
176	3388769 183506 588 275403 0.05 9.999 9988 0 0 0 0
177	3572275 168 1129 251324 0.065 9.091 9 0 47 282 13254
178	3572443 220430 588 275403 0.05 9.999 11975 0 0 0 0
187	3792873 212114 588 275403 0.05 9.999 9976 1 9976 49765276 330988850676
188	4004987 195256 588 275403 0.05 9.999 9976 0 169 969575 157531883
189	4200243 114 1139 251193 0.065 9.088 6 15 15 90 1350
192	4200357 10 0 0 0 0 1 1 1 1 1
198	4200367 83 694 249392 0.054974475701 9.054974475701 3 44 44 132 5808
199	4200450 57 1459 250446 0.074 9.074 3 45 45 135 6075
200	4200507 57 1459 250446 0.074 9.074 3 44 44 132 5808
201	4200564 83 694 249392 0.054974475701 9.054974475701 3 45 45 135 6075
202	4200647 139 697 249623 0.054974475701 9.059 6 45 47 276 12702
203	4200786 74831 605 275400 0.051 9.999 4024 0 0 0 0
204	4275617 110 856 250442 0.059 9.074 6 0 47 141 6627
205	4275727 74830 605 275400 0.051 9.999 4024 0 0 0 0
214	4350557 85608 605 275400 0.051 9.999 4015 1 4015 8062120 21582295240
215	4436165 78685 605 275400 0.051 9.999 4015 44 87 261588 18693296
216	4514850 57 1374 250326 0.071 9.071 3 15 15 45 675
219	4514907 10 0 0 0 0 1 1 1 1 1
225	4514917 83 528 249103 0.047483884436 9.047483884436 3 44 44 132 5808
228	4515000 83 528 249103 0.047483884436 9.047483884436 3 45 45 135 6075
229	4515083 140 531 252039 0.047483884436 9.107 6 45 47 276 12702
230	4515223 72583 627 275422 0.052 10 4021 0 0 0 0
231	4587806 54 2817 252035 0.107 9.107 3 0 0 0 0
232	4587860 73174 542 275422 0.048 10 4054 0 0 0 0
241	4661034 83413 627 275422 0.052 10 4015 1 4015 8062120 21582295240
242	4744447 80505 627 275422 0.052 10 4015 167 169 673486 112973762
246	4824952 10 0 0 0 0 1 1 1 1 1
250	4824962 89 525 249100 0.047483884436 9.047483884436 3 7504 7504 22512 168930048
251	4825051 89 525 249100 0.047483884436 9.047483884436 3 7504 7504 22512 168930048
253	4825140 80 525 249100 0.047483884436 9.047483884436 3 0 0 0 0
264	4825220 80 525 249100 0.047483884436 9.047483884436 3 0 0 0 0
274	4825300 89 691 249389 0.054974475701 9.054974475701 3 7504 7504 22512 168930048
275	4825389 89 691 249389 0.054974475701 9.054974475701 3 7504 7504 22512 168930048
277	4825478 80 691 249389 0.054974475701 9.054974475701 3 0 0 0 0
288	4825558 80 691 249389 0.054974475701 9.054974475701 3 0 0 0 0
298	4825638 89 942 249743 0.060104957663 9.060104957663 3 7504 7504 22512 168930048
299	4825727 89 942 249743 0.060104957663 9.060104957663 3 7504 7504 22512 168930048
301	4825816 80 942 249743 0.060104957663 9.060104957663 3 0 0 0 0
312	4825896 80 942 249743 0.060104957663 9.060104957663 3 0 0 0 0
322	4825976 90 1565 250617 0.077904278447 9.077904278447 3 7504 7504 22512 168930048
323	4826066 90 1565 250617 0.077904278447 9.077904278447 3 7504 7504 22512 168930048
325	4826156 81 1565 250617 0.077904278447 9.077904278447 3 0 0 0 0
336	4826237 81 1565 250617 0.077904278447 9.077904278447 3 0 0 0 0
346	4826318 90 1877 251071 0.085128808198 9.085128808198 3 7504 7504 22512 168930048
347	4826408 90 1877 251071 0.085128808198 9.085128808198 3 7504 7504 22512 168930048
349	4826498 81 1877 251071 0.085128808198 9.085128808198 3 0 0 0 0
360	4826579 81 1877 251071 0.085128808198 9.085128808198 3 0 0 0 0
