file 203391592 1580843667                                       
version 2
run CAIN-12-20200204-16:11:48-20095
attr configname CAIN
attr datetime 20200204-16:11:48
attr dist 200
attr experiment CAIN
attr inifile omnetpp.ini
attr iterationvars "$dist=200, $numUe=20, $mob=\"./movements/RWP-0.0.movements\""
attr iterationvars2 "$dist=200, $numUe=20, $mob=\"./movements/RWP-0.0.movements\", $repetition=0"
attr measurement "$dist=200, $numUe=20, $mob=\"./movements/RWP-0.0.movements\""
attr mob "\"./movements/RWP-0.0.movements\""
attr network lte.simulations.networks.CAIN
attr numUe 20
attr processid 20095
attr repetition 0
attr replication #0
attr resultdir results
attr runnumber 12
attr seedset 0
param **.**.amcMode "\"AUTO\""
param **.amcMode "\"D2D\""
param **.cainNetwork true
param **.channelControl.alpha 1.0
param **.channelControl.carrierFrequency 2100e+6Hz
param **.channelControl.pMax 10W
param **.d2dCqi 7
param **.deployer.numRbDl 50
param **.deployer.numRbUl 50
param **.distThresh "${dist=200..260 step 10}"
param **.fbDelay 1
param **.feedbackComputation "xmldoc(\"config_channel.xml\")"
param **.mobility.constraintAreaMaxX 1000m
param **.mobility.constraintAreaMaxY 1000m
param **.mobility.constraintAreaMaxZ 0m
param **.mobility.constraintAreaMinX 0m
param **.mobility.constraintAreaMinY 0m
param **.mobility.constraintAreaMinZ 0m
param **.nic.phy.channelModel "xmldoc(\"config_channel.xml\")"
param **.numBands 50
param **.pwrThresh -10
param **.qtdThresh 3
param **.rbAllocationType "\"localized\""
param **.routingRecorder.enabled false
param **.tcpApp[*].tClose -1s
param **.ueD2DTx[*].mobility.changeAngleBy "normal(0deg, 30deg)"
param **.ueD2DTx[*].mobility.changeInterval "normal(5s, 0.1s)"
param **.ueD2DTx[*].mobility.nodeId -1
param **.ueD2DTx[*].mobility.speed "normal(2mps, 0.01mps)"
param **.ueD2DTx[*].mobility.traceFile "${mob=\"./movements/RWP-0.0.movements\",\"./movements/RWP-0.5.movements\",\"./movements/RPGM-0.0.movements\",\"./movements/RPGM-0.5.movements\",\"./movements/RWPRPGM-0.0.movements\",\"./movements/RWPRPGM-0.5.movements\"}"
param **.ueD2DTx[*].mobilityType "\"BonnMotionMobility\""
param **.usePreconfiguredTxParams false
param *.eNodeB.d2dCapable false
param *.eNodeB.mobility.initFromDisplayString false
param *.eNodeB.mobility.initialX 300m
param *.eNodeB.mobility.initialY 300m
param *.eNodeB.nic.phy.enableD2DCqiReporting true
param *.eNodeB.txPower 19952.62315mw
param *.numUeCell 0
param *.numUeD2DRx 1
param *.numUeD2DTx 1
param *.ue*.macCellId 1
param *.ue*.masterId 1
param *.ue*.mobility.initFromDisplayString false
param *.ue*[0].macCellId 1
param *.ue*[0].masterId 1
param *.ue*[0].mobility.initFromDisplayString false
param *.ueD2D*.numTcpApps 1
param *.ueD2D*[*].d2dCapable true
param *.ueD2D*[0].d2dCapable false
param *.ueD2D*[0].numTcpApps 1
param *.ueD2DRx[0].mobility.initialX 310m
param *.ueD2DRx[0].mobility.initialY 350m
param *.ueD2DRx[0].tcpApp[*].localPort 1000
param *.ueD2DRx[0].tcpApp[*].typename "\"TCPSinkApp\""
param *.ueD2DTx*.tcpApp[*].connectAddress "\"ueD2DTx[0]\""
param *.ueD2DTx*.tcpApp[*].localAddress "\"ueD2DTx\""
param *.ueD2DTx*.tcpApp[*].localPort 1000
param *.ueD2DTx*.tcpApp[*].sendBytes 1GiB
param *.ueD2DTx*.tcpApp[*].typename "\"TCPSessionApp\""
param *.ueD2DTx*.tcpApp[0].active true
param *.ueD2DTx*.tcpApp[0].connectPort 1000
param *.ueD2DTx*.tcpApp[0].tOpen uniform(0.010s,0.1s)
param *.ueD2DTx*.tcpApp[0].tSend uniform(0.15s,0.5s)
param *.ueD2DTx[0].mobility.initialX 290m
param *.ueD2DTx[0].mobility.initialY 350m
param *.ueD2DTx[0].nic.d2dPeerAddresses "\"ueD2DTx[1]\""
param *.ueD2DTx[0].tcpApp[*].localPort 1000
param *.ueD2DTx[0].tcpApp[*].sendBytes 1GiB
param *.ueD2DTx[0].tcpApp[*].typename "\"TCPSessionApp\""
param *.ueD2DTx[0].tcpApp[0].active true
param *.ueD2DTx[0].tcpApp[0].connectAddress "\"ueD2DRx[0]\""
param *.ueD2DTx[0].tcpApp[0].connectPort 1000
param *.ueD2DTx[0].tcpApp[0].localAddress "\"ueD2DTx[0]\""
param *.ueD2DTx[0].tcpApp[0].tOpen uniform(0.010s,0.1s)
param *.ueD2DTx[0].tcpApp[0].tSend uniform(0.15s,0.5s)
param *.ueD2DTx[1].nic.d2dPeerAddresses "\"ueD2DTx[0]\""

vector 8  CAIN.server.ppp[0].queue  queueLength:vector  ETV
attr interpolationmode  sample-hold
attr title  "queue length, vector"
vector 9  CAIN.server.ppp[0].ppp  txState:vector  ETV
attr interpolationmode  sample-hold
attr title  "tx state, vector"
vector 24  CAIN.router.ppp[0].queue  queueLength:vector  ETV
attr interpolationmode  sample-hold
attr title  "queue length, vector"
vector 25  CAIN.router.ppp[0].ppp  txState:vector  ETV
attr interpolationmode  sample-hold
attr title  "tx state, vector"
vector 35  CAIN.router.ppp[1].queue  queueLength:vector  ETV
attr interpolationmode  sample-hold
attr title  "queue length, vector"
vector 36  CAIN.router.ppp[1].ppp  txState:vector  ETV
attr interpolationmode  sample-hold
attr title  "tx state, vector"
vector 56  CAIN.pgw.ppp[0].queue  queueLength:vector  ETV
attr interpolationmode  sample-hold
attr title  "queue length, vector"
vector 57  CAIN.pgw.ppp[0].ppp  txState:vector  ETV
attr interpolationmode  sample-hold
attr title  "tx state, vector"
vector 67  CAIN.pgw.pppInterface.queue  queueLength:vector  ETV
attr interpolationmode  sample-hold
attr title  "queue length, vector"
vector 68  CAIN.pgw.pppInterface.ppp  txState:vector  ETV
attr interpolationmode  sample-hold
attr title  "tx state, vector"
vector 104  CAIN.eNodeB.pppIf.queue  queueLength:vector  ETV
attr interpolationmode  sample-hold
attr title  "queue length, vector"
vector 105  CAIN.eNodeB.pppIf.ppp  txState:vector  ETV
attr interpolationmode  sample-hold
attr title  "tx state, vector"
vector 138  CAIN.ueD2DTx[0].nic.phy  servingCell:vector  ETV
attr source  servingCell
attr title  "ID of the serving eNodeB for the UE, vector"
attr unit  ""
vector 165  CAIN.ueD2DTx[1].nic.phy  servingCell:vector  ETV
attr source  servingCell
attr title  "ID of the serving eNodeB for the UE, vector"
attr unit  ""
vector 192  CAIN.ueD2DTx[2].nic.phy  servingCell:vector  ETV
attr source  servingCell
attr title  "ID of the serving eNodeB for the UE, vector"
attr unit  ""
vector 219  CAIN.ueD2DTx[3].nic.phy  servingCell:vector  ETV
attr source  servingCell
attr title  "ID of the serving eNodeB for the UE, vector"
attr unit  ""
vector 246  CAIN.ueD2DTx[4].nic.phy  servingCell:vector  ETV
attr source  servingCell
attr title  "ID of the serving eNodeB for the UE, vector"
attr unit  ""
vector 273  CAIN.ueD2DTx[5].nic.phy  servingCell:vector  ETV
attr source  servingCell
attr title  "ID of the serving eNodeB for the UE, vector"
attr unit  ""
vector 300  CAIN.ueD2DTx[6].nic.phy  servingCell:vector  ETV
attr source  servingCell
attr title  "ID of the serving eNodeB for the UE, vector"
attr unit  ""
vector 327  CAIN.ueD2DTx[7].nic.phy  servingCell:vector  ETV
attr source  servingCell
attr title  "ID of the serving eNodeB for the UE, vector"
attr unit  ""
vector 354  CAIN.ueD2DTx[8].nic.phy  servingCell:vector  ETV
attr source  servingCell
attr title  "ID of the serving eNodeB for the UE, vector"
attr unit  ""
vector 381  CAIN.ueD2DTx[9].nic.phy  servingCell:vector  ETV
attr source  servingCell
attr title  "ID of the serving eNodeB for the UE, vector"
attr unit  ""
vector 408  CAIN.ueD2DTx[10].nic.phy  servingCell:vector  ETV
attr source  servingCell
attr title  "ID of the serving eNodeB for the UE, vector"
attr unit  ""
vector 435  CAIN.ueD2DTx[11].nic.phy  servingCell:vector  ETV
attr source  servingCell
attr title  "ID of the serving eNodeB for the UE, vector"
attr unit  ""
vector 462  CAIN.ueD2DTx[12].nic.phy  servingCell:vector  ETV
attr source  servingCell
attr title  "ID of the serving eNodeB for the UE, vector"
attr unit  ""
vector 489  CAIN.ueD2DTx[13].nic.phy  servingCell:vector  ETV
attr source  servingCell
attr title  "ID of the serving eNodeB for the UE, vector"
attr unit  ""
vector 516  CAIN.ueD2DTx[14].nic.phy  servingCell:vector  ETV
attr source  servingCell
attr title  "ID of the serving eNodeB for the UE, vector"
attr unit  ""
vector 543  CAIN.ueD2DTx[15].nic.phy  servingCell:vector  ETV
attr source  servingCell
attr title  "ID of the serving eNodeB for the UE, vector"
attr unit  ""
vector 570  CAIN.ueD2DTx[16].nic.phy  servingCell:vector  ETV
attr source  servingCell
attr title  "ID of the serving eNodeB for the UE, vector"
attr unit  ""
vector 597  CAIN.ueD2DTx[17].nic.phy  servingCell:vector  ETV
attr source  servingCell
attr title  "ID of the serving eNodeB for the UE, vector"
attr unit  ""
vector 624  CAIN.ueD2DTx[18].nic.phy  servingCell:vector  ETV
attr source  servingCell
attr title  "ID of the serving eNodeB for the UE, vector"
attr unit  ""
vector 651  CAIN.ueD2DTx[19].nic.phy  servingCell:vector  ETV
attr source  servingCell
attr title  "ID of the serving eNodeB for the UE, vector"
attr unit  ""
vector 85  CAIN.eNodeB.nic.mac  receivedPacketFromLowerLayer:vector(packetBytes)  ETV
attr interpolationmode  none
attr source  receivedPacketFromLowerLayer
vector 669  CAIN.ueD2DTx[4].tcp  tcpRcvQueueBytes  ETV
vector 656  CAIN.ueD2DTx[4].tcp  "advertised window"  ETV
vector 655  CAIN.ueD2DTx[4].tcp  "receive window"  ETV
vector 658  CAIN.ueD2DTx[4].tcp  "sent ack"  ETV
vector 225  CAIN.ueD2DTx[4].nic.pdcpRrc  receivedPacketFromUpperLayer:vector(packetBytes)  ETV
attr interpolationmode  none
attr source  receivedPacketFromUpperLayer
vector 228  CAIN.ueD2DTx[4].nic.pdcpRrc  sentPacketToLowerLayer:vector(packetBytes)  ETV
attr interpolationmode  none
attr source  sentPacketToLowerLayer
vector 229  CAIN.ueD2DTx[4].nic.mac  receivedPacketFromUpperLayer:vector(packetBytes)  ETV
attr interpolationmode  none
attr source  receivedPacketFromUpperLayer
vector 232  CAIN.ueD2DTx[4].nic.mac  sentPacketToLowerLayer:vector(packetBytes)  ETV
attr interpolationmode  none
attr source  sentPacketToLowerLayer
vector 96  CAIN.eNodeB.nic.mac  racpkt:vector  ETV
attr interpolationmode  none
attr title  "eNB received racpkt message, vector"
vector 97  CAIN.eNodeB.nic.mac  racDistanceSignal:vector  ETV
attr interpolationmode  none
attr title  "Rac distance to enb, vector"
vector 87  CAIN.eNodeB.nic.mac  sentPacketToLowerLayer:vector(packetBytes)  ETV
attr interpolationmode  none
attr source  sentPacketToLowerLayer
vector 230  CAIN.ueD2DTx[4].nic.mac  receivedPacketFromLowerLayer:vector(packetBytes)  ETV
attr interpolationmode  none
attr source  receivedPacketFromLowerLayer
vector 241  CAIN.ueD2DTx[4].nic.mac  racpkt:vector  ETV
attr interpolationmode  none
attr title  "eNB received racpkt message, vector"
vector 242  CAIN.ueD2DTx[4].nic.mac  racDistanceSignal:vector  ETV
attr interpolationmode  none
attr title  "Rac distance to enb, vector"
vector 311  CAIN.ueD2DTx[7].nic.mac  receivedPacketFromLowerLayer:vector(packetBytes)  ETV
attr interpolationmode  none
attr source  receivedPacketFromLowerLayer
vector 322  CAIN.ueD2DTx[7].nic.mac  racpkt:vector  ETV
attr interpolationmode  none
attr title  "eNB received racpkt message, vector"
vector 323  CAIN.ueD2DTx[7].nic.mac  racDistanceSignal:vector  ETV
attr interpolationmode  none
attr title  "Rac distance to enb, vector"
vector 313  CAIN.ueD2DTx[7].nic.mac  sentPacketToLowerLayer:vector(packetBytes)  ETV
attr interpolationmode  none
attr source  sentPacketToLowerLayer
vector 338  CAIN.ueD2DTx[8].nic.mac  receivedPacketFromLowerLayer:vector(packetBytes)  ETV
attr interpolationmode  none
attr source  receivedPacketFromLowerLayer
vector 349  CAIN.ueD2DTx[8].nic.mac  racpkt:vector  ETV
attr interpolationmode  none
attr title  "eNB received racpkt message, vector"
vector 350  CAIN.ueD2DTx[8].nic.mac  racDistanceSignal:vector  ETV
attr interpolationmode  none
attr title  "Rac distance to enb, vector"
vector 340  CAIN.ueD2DTx[8].nic.mac  sentPacketToLowerLayer:vector(packetBytes)  ETV
attr interpolationmode  none
attr source  sentPacketToLowerLayer
vector 473  CAIN.ueD2DTx[13].nic.mac  receivedPacketFromLowerLayer:vector(packetBytes)  ETV
attr interpolationmode  none
attr source  receivedPacketFromLowerLayer
vector 484  CAIN.ueD2DTx[13].nic.mac  racpkt:vector  ETV
attr interpolationmode  none
attr title  "eNB received racpkt message, vector"
vector 485  CAIN.ueD2DTx[13].nic.mac  racDistanceSignal:vector  ETV
attr interpolationmode  none
attr title  "Rac distance to enb, vector"
vector 475  CAIN.ueD2DTx[13].nic.mac  sentPacketToLowerLayer:vector(packetBytes)  ETV
attr interpolationmode  none
attr source  sentPacketToLowerLayer
vector 419  CAIN.ueD2DTx[11].nic.mac  receivedPacketFromLowerLayer:vector(packetBytes)  ETV
attr interpolationmode  none
attr source  receivedPacketFromLowerLayer
vector 430  CAIN.ueD2DTx[11].nic.mac  racpkt:vector  ETV
attr interpolationmode  none
attr title  "eNB received racpkt message, vector"
vector 431  CAIN.ueD2DTx[11].nic.mac  racDistanceSignal:vector  ETV
attr interpolationmode  none
attr title  "Rac distance to enb, vector"
vector 421  CAIN.ueD2DTx[11].nic.mac  sentPacketToLowerLayer:vector(packetBytes)  ETV
attr interpolationmode  none
attr source  sentPacketToLowerLayer
vector 527  CAIN.ueD2DTx[15].nic.mac  receivedPacketFromLowerLayer:vector(packetBytes)  ETV
attr interpolationmode  none
attr source  receivedPacketFromLowerLayer
vector 538  CAIN.ueD2DTx[15].nic.mac  racpkt:vector  ETV
attr interpolationmode  none
attr title  "eNB received racpkt message, vector"
vector 539  CAIN.ueD2DTx[15].nic.mac  racDistanceSignal:vector  ETV
attr interpolationmode  none
attr title  "Rac distance to enb, vector"
vector 529  CAIN.ueD2DTx[15].nic.mac  sentPacketToLowerLayer:vector(packetBytes)  ETV
attr interpolationmode  none
attr source  sentPacketToLowerLayer
vector 581  CAIN.ueD2DTx[17].nic.mac  receivedPacketFromLowerLayer:vector(packetBytes)  ETV
attr interpolationmode  none
attr source  receivedPacketFromLowerLayer
vector 592  CAIN.ueD2DTx[17].nic.mac  racpkt:vector  ETV
attr interpolationmode  none
attr title  "eNB received racpkt message, vector"
vector 593  CAIN.ueD2DTx[17].nic.mac  racDistanceSignal:vector  ETV
attr interpolationmode  none
attr title  "Rac distance to enb, vector"
vector 583  CAIN.ueD2DTx[17].nic.mac  sentPacketToLowerLayer:vector(packetBytes)  ETV
attr interpolationmode  none
attr source  sentPacketToLowerLayer
vector 203  CAIN.ueD2DTx[3].nic.mac  receivedPacketFromLowerLayer:vector(packetBytes)  ETV
attr interpolationmode  none
attr source  receivedPacketFromLowerLayer
vector 214  CAIN.ueD2DTx[3].nic.mac  racpkt:vector  ETV
attr interpolationmode  none
attr title  "eNB received racpkt message, vector"
vector 215  CAIN.ueD2DTx[3].nic.mac  racDistanceSignal:vector  ETV
attr interpolationmode  none
attr title  "Rac distance to enb, vector"
vector 205  CAIN.ueD2DTx[3].nic.mac  sentPacketToLowerLayer:vector(packetBytes)  ETV
attr interpolationmode  none
attr source  sentPacketToLowerLayer
vector 257  CAIN.ueD2DTx[5].nic.mac  receivedPacketFromLowerLayer:vector(packetBytes)  ETV
attr interpolationmode  none
attr source  receivedPacketFromLowerLayer
vector 268  CAIN.ueD2DTx[5].nic.mac  racpkt:vector  ETV
attr interpolationmode  none
attr title  "eNB received racpkt message, vector"
vector 269  CAIN.ueD2DTx[5].nic.mac  racDistanceSignal:vector  ETV
attr interpolationmode  none
attr title  "Rac distance to enb, vector"
vector 259  CAIN.ueD2DTx[5].nic.mac  sentPacketToLowerLayer:vector(packetBytes)  ETV
attr interpolationmode  none
attr source  sentPacketToLowerLayer
vector 608  CAIN.ueD2DTx[18].nic.mac  receivedPacketFromLowerLayer:vector(packetBytes)  ETV
attr interpolationmode  none
attr source  receivedPacketFromLowerLayer
vector 619  CAIN.ueD2DTx[18].nic.mac  racpkt:vector  ETV
attr interpolationmode  none
attr title  "eNB received racpkt message, vector"
vector 620  CAIN.ueD2DTx[18].nic.mac  racDistanceSignal:vector  ETV
attr interpolationmode  none
attr title  "Rac distance to enb, vector"
vector 610  CAIN.ueD2DTx[18].nic.mac  sentPacketToLowerLayer:vector(packetBytes)  ETV
attr interpolationmode  none
attr source  sentPacketToLowerLayer
vector 231  CAIN.ueD2DTx[4].nic.mac  sentPacketToUpperLayer:vector(packetBytes)  ETV
attr interpolationmode  none
attr source  sentPacketToUpperLayer
vector 149  CAIN.ueD2DTx[1].nic.mac  receivedPacketFromLowerLayer:vector(packetBytes)  ETV
attr interpolationmode  none
attr source  receivedPacketFromLowerLayer
vector 160  CAIN.ueD2DTx[1].nic.mac  racpkt:vector  ETV
attr interpolationmode  none
attr title  "eNB received racpkt message, vector"
vector 161  CAIN.ueD2DTx[1].nic.mac  racDistanceSignal:vector  ETV
attr interpolationmode  none
attr title  "Rac distance to enb, vector"
vector 151  CAIN.ueD2DTx[1].nic.mac  sentPacketToLowerLayer:vector(packetBytes)  ETV
attr interpolationmode  none
attr source  sentPacketToLowerLayer
vector 446  CAIN.ueD2DTx[12].nic.mac  receivedPacketFromLowerLayer:vector(packetBytes)  ETV
attr interpolationmode  none
attr source  receivedPacketFromLowerLayer
vector 457  CAIN.ueD2DTx[12].nic.mac  racpkt:vector  ETV
attr interpolationmode  none
attr title  "eNB received racpkt message, vector"
vector 458  CAIN.ueD2DTx[12].nic.mac  racDistanceSignal:vector  ETV
attr interpolationmode  none
attr title  "Rac distance to enb, vector"
vector 448  CAIN.ueD2DTx[12].nic.mac  sentPacketToLowerLayer:vector(packetBytes)  ETV
attr interpolationmode  none
attr source  sentPacketToLowerLayer
vector 365  CAIN.ueD2DTx[9].nic.mac  receivedPacketFromLowerLayer:vector(packetBytes)  ETV
attr interpolationmode  none
attr source  receivedPacketFromLowerLayer
vector 376  CAIN.ueD2DTx[9].nic.mac  racpkt:vector  ETV
attr interpolationmode  none
attr title  "eNB received racpkt message, vector"
vector 377  CAIN.ueD2DTx[9].nic.mac  racDistanceSignal:vector  ETV
attr interpolationmode  none
attr title  "Rac distance to enb, vector"
vector 367  CAIN.ueD2DTx[9].nic.mac  sentPacketToLowerLayer:vector(packetBytes)  ETV
attr interpolationmode  none
attr source  sentPacketToLowerLayer
vector 284  CAIN.ueD2DTx[6].nic.mac  receivedPacketFromLowerLayer:vector(packetBytes)  ETV
attr interpolationmode  none
attr source  receivedPacketFromLowerLayer
vector 295  CAIN.ueD2DTx[6].nic.mac  racpkt:vector  ETV
attr interpolationmode  none
attr title  "eNB received racpkt message, vector"
vector 296  CAIN.ueD2DTx[6].nic.mac  racDistanceSignal:vector  ETV
attr interpolationmode  none
attr title  "Rac distance to enb, vector"
vector 286  CAIN.ueD2DTx[6].nic.mac  sentPacketToLowerLayer:vector(packetBytes)  ETV
attr interpolationmode  none
attr source  sentPacketToLowerLayer
vector 635  CAIN.ueD2DTx[19].nic.mac  receivedPacketFromLowerLayer:vector(packetBytes)  ETV
attr interpolationmode  none
attr source  receivedPacketFromLowerLayer
vector 646  CAIN.ueD2DTx[19].nic.mac  racpkt:vector  ETV
attr interpolationmode  none
attr title  "eNB received racpkt message, vector"
vector 647  CAIN.ueD2DTx[19].nic.mac  racDistanceSignal:vector  ETV
attr interpolationmode  none
attr title  "Rac distance to enb, vector"
vector 637  CAIN.ueD2DTx[19].nic.mac  sentPacketToLowerLayer:vector(packetBytes)  ETV
attr interpolationmode  none
attr source  sentPacketToLowerLayer
vector 176  CAIN.ueD2DTx[2].nic.mac  receivedPacketFromLowerLayer:vector(packetBytes)  ETV
attr interpolationmode  none
attr source  receivedPacketFromLowerLayer
vector 187  CAIN.ueD2DTx[2].nic.mac  racpkt:vector  ETV
attr interpolationmode  none
attr title  "eNB received racpkt message, vector"
vector 188  CAIN.ueD2DTx[2].nic.mac  racDistanceSignal:vector  ETV
attr interpolationmode  none
attr title  "Rac distance to enb, vector"
vector 178  CAIN.ueD2DTx[2].nic.mac  sentPacketToLowerLayer:vector(packetBytes)  ETV
attr interpolationmode  none
attr source  sentPacketToLowerLayer
vector 392  CAIN.ueD2DTx[10].nic.mac  receivedPacketFromLowerLayer:vector(packetBytes)  ETV
attr interpolationmode  none
attr source  receivedPacketFromLowerLayer
vector 403  CAIN.ueD2DTx[10].nic.mac  racpkt:vector  ETV
attr interpolationmode  none
attr title  "eNB received racpkt message, vector"
vector 404  CAIN.ueD2DTx[10].nic.mac  racDistanceSignal:vector  ETV
attr interpolationmode  none
attr title  "Rac distance to enb, vector"
vector 394  CAIN.ueD2DTx[10].nic.mac  sentPacketToLowerLayer:vector(packetBytes)  ETV
attr interpolationmode  none
attr source  sentPacketToLowerLayer
vector 122  CAIN.ueD2DTx[0].nic.mac  receivedPacketFromLowerLayer:vector(packetBytes)  ETV
attr interpolationmode  none
attr source  receivedPacketFromLowerLayer
vector 133  CAIN.ueD2DTx[0].nic.mac  racpkt:vector  ETV
attr interpolationmode  none
attr title  "eNB received racpkt message, vector"
vector 134  CAIN.ueD2DTx[0].nic.mac  racDistanceSignal:vector  ETV
attr interpolationmode  none
attr title  "Rac distance to enb, vector"
vector 124  CAIN.ueD2DTx[0].nic.mac  sentPacketToLowerLayer:vector(packetBytes)  ETV
attr interpolationmode  none
attr source  sentPacketToLowerLayer
vector 500  CAIN.ueD2DTx[14].nic.mac  receivedPacketFromLowerLayer:vector(packetBytes)  ETV
attr interpolationmode  none
attr source  receivedPacketFromLowerLayer
vector 511  CAIN.ueD2DTx[14].nic.mac  racpkt:vector  ETV
attr interpolationmode  none
attr title  "eNB received racpkt message, vector"
vector 512  CAIN.ueD2DTx[14].nic.mac  racDistanceSignal:vector  ETV
attr interpolationmode  none
attr title  "Rac distance to enb, vector"
vector 502  CAIN.ueD2DTx[14].nic.mac  sentPacketToLowerLayer:vector(packetBytes)  ETV
attr interpolationmode  none
attr source  sentPacketToLowerLayer
vector 554  CAIN.ueD2DTx[16].nic.mac  receivedPacketFromLowerLayer:vector(packetBytes)  ETV
attr interpolationmode  none
attr source  receivedPacketFromLowerLayer
vector 565  CAIN.ueD2DTx[16].nic.mac  racpkt:vector  ETV
attr interpolationmode  none
attr title  "eNB received racpkt message, vector"
vector 566  CAIN.ueD2DTx[16].nic.mac  racDistanceSignal:vector  ETV
attr interpolationmode  none
attr title  "Rac distance to enb, vector"
vector 556  CAIN.ueD2DTx[16].nic.mac  sentPacketToLowerLayer:vector(packetBytes)  ETV
attr interpolationmode  none
attr source  sentPacketToLowerLayer
vector 99  CAIN.eNodeB.nic.phy  averageCqiUlvect:vector  ETV
attr source  averageCqiUlvect
attr title  "Average Cqi reported in UL, vector"
attr unit  cqi
vector 93  CAIN.eNodeB.nic.mac  ServedDevs:vector  ETV
attr interpolationmode  none
attr title  "# of devices served on cain forwarding, vector"
vector 91  CAIN.eNodeB.nic.mac  DistanceSignal:vector  ETV
attr interpolationmode  none
attr title  "Distance to enb, vector"
vector 89  CAIN.eNodeB.nic.mac  CainMessage:vector  ETV
attr interpolationmode  none
attr title  "eNB received CAIN message, vector"
vector 92  CAIN.eNodeB.nic.mac  HopDistanceSignal:vector  ETV
attr interpolationmode  none
attr title  "Distance to enb with hop forwarding, vector"
vector 90  CAIN.eNodeB.nic.mac  CainHopMessage:vector  ETV
attr interpolationmode  none
attr title  "eNB received CAIN hop message, vector"
vector 86  CAIN.eNodeB.nic.mac  sentPacketToUpperLayer:vector(packetBytes)  ETV
attr interpolationmode  none
attr source  sentPacketToUpperLayer
vector 81  CAIN.eNodeB.nic.pdcpRrc  receivedPacketFromLowerLayer:vector(packetBytes)  ETV
attr interpolationmode  none
attr source  receivedPacketFromLowerLayer
vector 82  CAIN.eNodeB.nic.pdcpRrc  sentPacketToUpperLayer:vector(packetBytes)  ETV
attr interpolationmode  none
attr source  sentPacketToUpperLayer
vector 80  CAIN.eNodeB.nic.pdcpRrc  receivedPacketFromUpperLayer:vector(packetBytes)  ETV
attr interpolationmode  none
attr source  receivedPacketFromUpperLayer
vector 83  CAIN.eNodeB.nic.pdcpRrc  sentPacketToLowerLayer:vector(packetBytes)  ETV
attr interpolationmode  none
attr source  sentPacketToLowerLayer
vector 84  CAIN.eNodeB.nic.mac  receivedPacketFromUpperLayer:vector(packetBytes)  ETV
attr interpolationmode  none
attr source  receivedPacketFromUpperLayer
vector 693  CAIN.ueD2DTx[7].tcp  tcpRcvQueueBytes  ETV
vector 680  CAIN.ueD2DTx[7].tcp  "advertised window"  ETV
vector 679  CAIN.ueD2DTx[7].tcp  "receive window"  ETV
vector 682  CAIN.ueD2DTx[7].tcp  "sent ack"  ETV
vector 306  CAIN.ueD2DTx[7].nic.pdcpRrc  receivedPacketFromUpperLayer:vector(packetBytes)  ETV
attr interpolationmode  none
attr source  receivedPacketFromUpperLayer
vector 309  CAIN.ueD2DTx[7].nic.pdcpRrc  sentPacketToLowerLayer:vector(packetBytes)  ETV
attr interpolationmode  none
attr source  sentPacketToLowerLayer
vector 310  CAIN.ueD2DTx[7].nic.mac  receivedPacketFromUpperLayer:vector(packetBytes)  ETV
attr interpolationmode  none
attr source  receivedPacketFromUpperLayer
vector 88  CAIN.eNodeB.nic.mac  measuredItbs:vector  ETV
attr source  measuredItbs
attr title  "TBS index, vector"
attr unit  ""
vector 135  CAIN.ueD2DTx[0].nic.phy  averageCqiDlvect:vector  ETV
attr source  averageCqiDlvect
attr title  "Average Cqi reported in DL, vector"
attr unit  cqi
vector 717  CAIN.ueD2DTx[17].tcp  tcpRcvQueueBytes  ETV
vector 704  CAIN.ueD2DTx[17].tcp  "advertised window"  ETV
vector 703  CAIN.ueD2DTx[17].tcp  "receive window"  ETV
vector 706  CAIN.ueD2DTx[17].tcp  "sent ack"  ETV
vector 576  CAIN.ueD2DTx[17].nic.pdcpRrc  receivedPacketFromUpperLayer:vector(packetBytes)  ETV
attr interpolationmode  none
attr source  receivedPacketFromUpperLayer
vector 579  CAIN.ueD2DTx[17].nic.pdcpRrc  sentPacketToLowerLayer:vector(packetBytes)  ETV
attr interpolationmode  none
attr source  sentPacketToLowerLayer
vector 580  CAIN.ueD2DTx[17].nic.mac  receivedPacketFromUpperLayer:vector(packetBytes)  ETV
attr interpolationmode  none
attr source  receivedPacketFromUpperLayer
vector 123  CAIN.ueD2DTx[0].nic.mac  sentPacketToUpperLayer:vector(packetBytes)  ETV
attr interpolationmode  none
attr source  sentPacketToUpperLayer
vector 118  CAIN.ueD2DTx[0].nic.pdcpRrc  receivedPacketFromLowerLayer:vector(packetBytes)  ETV
attr interpolationmode  none
attr source  receivedPacketFromLowerLayer
vector 119  CAIN.ueD2DTx[0].nic.pdcpRrc  sentPacketToUpperLayer:vector(packetBytes)  ETV
attr interpolationmode  none
attr source  sentPacketToUpperLayer
vector 312  CAIN.ueD2DTx[7].nic.mac  sentPacketToUpperLayer:vector(packetBytes)  ETV
attr interpolationmode  none
attr source  sentPacketToUpperLayer
vector 741  CAIN.ueD2DTx[5].tcp  tcpRcvQueueBytes  ETV
vector 728  CAIN.ueD2DTx[5].tcp  "advertised window"  ETV
vector 727  CAIN.ueD2DTx[5].tcp  "receive window"  ETV
vector 730  CAIN.ueD2DTx[5].tcp  "sent ack"  ETV
vector 252  CAIN.ueD2DTx[5].nic.pdcpRrc  receivedPacketFromUpperLayer:vector(packetBytes)  ETV
attr interpolationmode  none
attr source  receivedPacketFromUpperLayer
vector 255  CAIN.ueD2DTx[5].nic.pdcpRrc  sentPacketToLowerLayer:vector(packetBytes)  ETV
attr interpolationmode  none
attr source  sentPacketToLowerLayer
vector 256  CAIN.ueD2DTx[5].nic.mac  receivedPacketFromUpperLayer:vector(packetBytes)  ETV
attr interpolationmode  none
attr source  receivedPacketFromUpperLayer
vector 582  CAIN.ueD2DTx[17].nic.mac  sentPacketToUpperLayer:vector(packetBytes)  ETV
attr interpolationmode  none
attr source  sentPacketToUpperLayer
vector 765  CAIN.ueD2DTx[8].tcp  tcpRcvQueueBytes  ETV
vector 752  CAIN.ueD2DTx[8].tcp  "advertised window"  ETV
vector 751  CAIN.ueD2DTx[8].tcp  "receive window"  ETV
vector 754  CAIN.ueD2DTx[8].tcp  "sent ack"  ETV
vector 333  CAIN.ueD2DTx[8].nic.pdcpRrc  receivedPacketFromUpperLayer:vector(packetBytes)  ETV
attr interpolationmode  none
attr source  receivedPacketFromUpperLayer
vector 336  CAIN.ueD2DTx[8].nic.pdcpRrc  sentPacketToLowerLayer:vector(packetBytes)  ETV
attr interpolationmode  none
attr source  sentPacketToLowerLayer
vector 337  CAIN.ueD2DTx[8].nic.mac  receivedPacketFromUpperLayer:vector(packetBytes)  ETV
attr interpolationmode  none
attr source  receivedPacketFromUpperLayer
vector 258  CAIN.ueD2DTx[5].nic.mac  sentPacketToUpperLayer:vector(packetBytes)  ETV
attr interpolationmode  none
attr source  sentPacketToUpperLayer
vector 789  CAIN.ueD2DTx[12].tcp  tcpRcvQueueBytes  ETV
vector 776  CAIN.ueD2DTx[12].tcp  "advertised window"  ETV
vector 775  CAIN.ueD2DTx[12].tcp  "receive window"  ETV
vector 778  CAIN.ueD2DTx[12].tcp  "sent ack"  ETV
vector 441  CAIN.ueD2DTx[12].nic.pdcpRrc  receivedPacketFromUpperLayer:vector(packetBytes)  ETV
attr interpolationmode  none
attr source  receivedPacketFromUpperLayer
vector 444  CAIN.ueD2DTx[12].nic.pdcpRrc  sentPacketToLowerLayer:vector(packetBytes)  ETV
attr interpolationmode  none
attr source  sentPacketToLowerLayer
vector 445  CAIN.ueD2DTx[12].nic.mac  receivedPacketFromUpperLayer:vector(packetBytes)  ETV
attr interpolationmode  none
attr source  receivedPacketFromUpperLayer
vector 216  CAIN.ueD2DTx[3].nic.phy  averageCqiDlvect:vector  ETV
attr source  averageCqiDlvect
attr title  "Average Cqi reported in DL, vector"
attr unit  cqi
vector 204  CAIN.ueD2DTx[3].nic.mac  sentPacketToUpperLayer:vector(packetBytes)  ETV
attr interpolationmode  none
attr source  sentPacketToUpperLayer
vector 199  CAIN.ueD2DTx[3].nic.pdcpRrc  receivedPacketFromLowerLayer:vector(packetBytes)  ETV
attr interpolationmode  none
attr source  receivedPacketFromLowerLayer
vector 200  CAIN.ueD2DTx[3].nic.pdcpRrc  sentPacketToUpperLayer:vector(packetBytes)  ETV
attr interpolationmode  none
attr source  sentPacketToUpperLayer
vector 339  CAIN.ueD2DTx[8].nic.mac  sentPacketToUpperLayer:vector(packetBytes)  ETV
attr interpolationmode  none
attr source  sentPacketToUpperLayer
vector 486  CAIN.ueD2DTx[13].nic.phy  averageCqiDlvect:vector  ETV
attr source  averageCqiDlvect
attr title  "Average Cqi reported in DL, vector"
attr unit  cqi
vector 447  CAIN.ueD2DTx[12].nic.mac  sentPacketToUpperLayer:vector(packetBytes)  ETV
attr interpolationmode  none
attr source  sentPacketToUpperLayer
vector 474  CAIN.ueD2DTx[13].nic.mac  sentPacketToUpperLayer:vector(packetBytes)  ETV
attr interpolationmode  none
attr source  sentPacketToUpperLayer
vector 469  CAIN.ueD2DTx[13].nic.pdcpRrc  receivedPacketFromLowerLayer:vector(packetBytes)  ETV
attr interpolationmode  none
attr source  receivedPacketFromLowerLayer
vector 470  CAIN.ueD2DTx[13].nic.pdcpRrc  sentPacketToUpperLayer:vector(packetBytes)  ETV
attr interpolationmode  none
attr source  sentPacketToUpperLayer
vector 813  CAIN.ueD2DTx[0].tcp  tcpRcvQueueBytes  ETV
vector 800  CAIN.ueD2DTx[0].tcp  "advertised window"  ETV
vector 799  CAIN.ueD2DTx[0].tcp  "receive window"  ETV
vector 802  CAIN.ueD2DTx[0].tcp  "sent ack"  ETV
vector 117  CAIN.ueD2DTx[0].nic.pdcpRrc  receivedPacketFromUpperLayer:vector(packetBytes)  ETV
attr interpolationmode  none
attr source  receivedPacketFromUpperLayer
vector 120  CAIN.ueD2DTx[0].nic.pdcpRrc  sentPacketToLowerLayer:vector(packetBytes)  ETV
attr interpolationmode  none
attr source  sentPacketToLowerLayer
vector 121  CAIN.ueD2DTx[0].nic.mac  receivedPacketFromUpperLayer:vector(packetBytes)  ETV
attr interpolationmode  none
attr source  receivedPacketFromUpperLayer
vector 837  CAIN.ueD2DTx[2].tcp  tcpRcvQueueBytes  ETV
vector 824  CAIN.ueD2DTx[2].tcp  "advertised window"  ETV
vector 823  CAIN.ueD2DTx[2].tcp  "receive window"  ETV
vector 826  CAIN.ueD2DTx[2].tcp  "sent ack"  ETV
vector 171  CAIN.ueD2DTx[2].nic.pdcpRrc  receivedPacketFromUpperLayer:vector(packetBytes)  ETV
attr interpolationmode  none
attr source  receivedPacketFromUpperLayer
vector 174  CAIN.ueD2DTx[2].nic.pdcpRrc  sentPacketToLowerLayer:vector(packetBytes)  ETV
attr interpolationmode  none
attr source  sentPacketToLowerLayer
vector 175  CAIN.ueD2DTx[2].nic.mac  receivedPacketFromUpperLayer:vector(packetBytes)  ETV
attr interpolationmode  none
attr source  receivedPacketFromUpperLayer
vector 861  CAIN.ueD2DTx[9].tcp  tcpRcvQueueBytes  ETV
vector 848  CAIN.ueD2DTx[9].tcp  "advertised window"  ETV
vector 847  CAIN.ueD2DTx[9].tcp  "receive window"  ETV
vector 850  CAIN.ueD2DTx[9].tcp  "sent ack"  ETV
vector 360  CAIN.ueD2DTx[9].nic.pdcpRrc  receivedPacketFromUpperLayer:vector(packetBytes)  ETV
attr interpolationmode  none
attr source  receivedPacketFromUpperLayer
vector 363  CAIN.ueD2DTx[9].nic.pdcpRrc  sentPacketToLowerLayer:vector(packetBytes)  ETV
attr interpolationmode  none
attr source  sentPacketToLowerLayer
vector 364  CAIN.ueD2DTx[9].nic.mac  receivedPacketFromUpperLayer:vector(packetBytes)  ETV
attr interpolationmode  none
attr source  receivedPacketFromUpperLayer
vector 885  CAIN.ueD2DTx[11].tcp  tcpRcvQueueBytes  ETV
vector 872  CAIN.ueD2DTx[11].tcp  "advertised window"  ETV
vector 871  CAIN.ueD2DTx[11].tcp  "receive window"  ETV
vector 874  CAIN.ueD2DTx[11].tcp  "sent ack"  ETV
vector 414  CAIN.ueD2DTx[11].nic.pdcpRrc  receivedPacketFromUpperLayer:vector(packetBytes)  ETV
attr interpolationmode  none
attr source  receivedPacketFromUpperLayer
vector 417  CAIN.ueD2DTx[11].nic.pdcpRrc  sentPacketToLowerLayer:vector(packetBytes)  ETV
attr interpolationmode  none
attr source  sentPacketToLowerLayer
vector 418  CAIN.ueD2DTx[11].nic.mac  receivedPacketFromUpperLayer:vector(packetBytes)  ETV
attr interpolationmode  none
attr source  receivedPacketFromUpperLayer
vector 177  CAIN.ueD2DTx[2].nic.mac  sentPacketToUpperLayer:vector(packetBytes)  ETV
attr interpolationmode  none
attr source  sentPacketToUpperLayer
vector 366  CAIN.ueD2DTx[9].nic.mac  sentPacketToUpperLayer:vector(packetBytes)  ETV
attr interpolationmode  none
attr source  sentPacketToUpperLayer
vector 420  CAIN.ueD2DTx[11].nic.mac  sentPacketToUpperLayer:vector(packetBytes)  ETV
attr interpolationmode  none
attr source  sentPacketToUpperLayer
vector 909  CAIN.ueD2DTx[13].tcp  tcpRcvQueueBytes  ETV
vector 896  CAIN.ueD2DTx[13].tcp  "advertised window"  ETV
vector 895  CAIN.ueD2DTx[13].tcp  "receive window"  ETV
vector 898  CAIN.ueD2DTx[13].tcp  "sent ack"  ETV
vector 468  CAIN.ueD2DTx[13].nic.pdcpRrc  receivedPacketFromUpperLayer:vector(packetBytes)  ETV
attr interpolationmode  none
attr source  receivedPacketFromUpperLayer
vector 471  CAIN.ueD2DTx[13].nic.pdcpRrc  sentPacketToLowerLayer:vector(packetBytes)  ETV
attr interpolationmode  none
attr source  sentPacketToLowerLayer
vector 472  CAIN.ueD2DTx[13].nic.mac  receivedPacketFromUpperLayer:vector(packetBytes)  ETV
attr interpolationmode  none
attr source  receivedPacketFromUpperLayer
vector 243  CAIN.ueD2DTx[4].nic.phy  averageCqiDlvect:vector  ETV
attr source  averageCqiDlvect
attr title  "Average Cqi reported in DL, vector"
attr unit  cqi
vector 933  CAIN.ueD2DTx[14].tcp  tcpRcvQueueBytes  ETV
vector 920  CAIN.ueD2DTx[14].tcp  "advertised window"  ETV
vector 919  CAIN.ueD2DTx[14].tcp  "receive window"  ETV
vector 922  CAIN.ueD2DTx[14].tcp  "sent ack"  ETV
vector 495  CAIN.ueD2DTx[14].nic.pdcpRrc  receivedPacketFromUpperLayer:vector(packetBytes)  ETV
attr interpolationmode  none
attr source  receivedPacketFromUpperLayer
vector 498  CAIN.ueD2DTx[14].nic.pdcpRrc  sentPacketToLowerLayer:vector(packetBytes)  ETV
attr interpolationmode  none
attr source  sentPacketToLowerLayer
vector 499  CAIN.ueD2DTx[14].nic.mac  receivedPacketFromUpperLayer:vector(packetBytes)  ETV
attr interpolationmode  none
attr source  receivedPacketFromUpperLayer
vector 226  CAIN.ueD2DTx[4].nic.pdcpRrc  receivedPacketFromLowerLayer:vector(packetBytes)  ETV
attr interpolationmode  none
attr source  receivedPacketFromLowerLayer
vector 227  CAIN.ueD2DTx[4].nic.pdcpRrc  sentPacketToUpperLayer:vector(packetBytes)  ETV
attr interpolationmode  none
attr source  sentPacketToUpperLayer
vector 501  CAIN.ueD2DTx[14].nic.mac  sentPacketToUpperLayer:vector(packetBytes)  ETV
attr interpolationmode  none
attr source  sentPacketToUpperLayer
vector 957  CAIN.ueD2DTx[10].tcp  tcpRcvQueueBytes  ETV
vector 944  CAIN.ueD2DTx[10].tcp  "advertised window"  ETV
vector 943  CAIN.ueD2DTx[10].tcp  "receive window"  ETV
vector 946  CAIN.ueD2DTx[10].tcp  "sent ack"  ETV
vector 387  CAIN.ueD2DTx[10].nic.pdcpRrc  receivedPacketFromUpperLayer:vector(packetBytes)  ETV
attr interpolationmode  none
attr source  receivedPacketFromUpperLayer
vector 390  CAIN.ueD2DTx[10].nic.pdcpRrc  sentPacketToLowerLayer:vector(packetBytes)  ETV
attr interpolationmode  none
attr source  sentPacketToLowerLayer
vector 391  CAIN.ueD2DTx[10].nic.mac  receivedPacketFromUpperLayer:vector(packetBytes)  ETV
attr interpolationmode  none
attr source  receivedPacketFromUpperLayer
vector 594  CAIN.ueD2DTx[17].nic.phy  averageCqiDlvect:vector  ETV
attr source  averageCqiDlvect
attr title  "Average Cqi reported in DL, vector"
attr unit  cqi
vector 393  CAIN.ueD2DTx[10].nic.mac  sentPacketToUpperLayer:vector(packetBytes)  ETV
attr interpolationmode  none
attr source  sentPacketToUpperLayer
vector 577  CAIN.ueD2DTx[17].nic.pdcpRrc  receivedPacketFromLowerLayer:vector(packetBytes)  ETV
attr interpolationmode  none
attr source  receivedPacketFromLowerLayer
vector 578  CAIN.ueD2DTx[17].nic.pdcpRrc  sentPacketToUpperLayer:vector(packetBytes)  ETV
attr interpolationmode  none
attr source  sentPacketToUpperLayer
vector 981  CAIN.ueD2DTx[16].tcp  tcpRcvQueueBytes  ETV
vector 968  CAIN.ueD2DTx[16].tcp  "advertised window"  ETV
vector 967  CAIN.ueD2DTx[16].tcp  "receive window"  ETV
vector 970  CAIN.ueD2DTx[16].tcp  "sent ack"  ETV
vector 549  CAIN.ueD2DTx[16].nic.pdcpRrc  receivedPacketFromUpperLayer:vector(packetBytes)  ETV
attr interpolationmode  none
attr source  receivedPacketFromUpperLayer
vector 552  CAIN.ueD2DTx[16].nic.pdcpRrc  sentPacketToLowerLayer:vector(packetBytes)  ETV
attr interpolationmode  none
attr source  sentPacketToLowerLayer
vector 553  CAIN.ueD2DTx[16].nic.mac  receivedPacketFromUpperLayer:vector(packetBytes)  ETV
attr interpolationmode  none
attr source  receivedPacketFromUpperLayer
vector 555  CAIN.ueD2DTx[16].nic.mac  sentPacketToUpperLayer:vector(packetBytes)  ETV
attr interpolationmode  none
attr source  sentPacketToUpperLayer
vector 1005  CAIN.ueD2DTx[18].tcp  tcpRcvQueueBytes  ETV
vector 992  CAIN.ueD2DTx[18].tcp  "advertised window"  ETV
vector 991  CAIN.ueD2DTx[18].tcp  "receive window"  ETV
vector 994  CAIN.ueD2DTx[18].tcp  "sent ack"  ETV
vector 603  CAIN.ueD2DTx[18].nic.pdcpRrc  receivedPacketFromUpperLayer:vector(packetBytes)  ETV
attr interpolationmode  none
attr source  receivedPacketFromUpperLayer
vector 606  CAIN.ueD2DTx[18].nic.pdcpRrc  sentPacketToLowerLayer:vector(packetBytes)  ETV
attr interpolationmode  none
attr source  sentPacketToLowerLayer
vector 607  CAIN.ueD2DTx[18].nic.mac  receivedPacketFromUpperLayer:vector(packetBytes)  ETV
attr interpolationmode  none
attr source  receivedPacketFromUpperLayer
vector 609  CAIN.ueD2DTx[18].nic.mac  sentPacketToUpperLayer:vector(packetBytes)  ETV
attr interpolationmode  none
attr source  sentPacketToUpperLayer
vector 1029  CAIN.ueD2DTx[6].tcp  tcpRcvQueueBytes  ETV
vector 1016  CAIN.ueD2DTx[6].tcp  "advertised window"  ETV
vector 1015  CAIN.ueD2DTx[6].tcp  "receive window"  ETV
vector 1018  CAIN.ueD2DTx[6].tcp  "sent ack"  ETV
vector 279  CAIN.ueD2DTx[6].nic.pdcpRrc  receivedPacketFromUpperLayer:vector(packetBytes)  ETV
attr interpolationmode  none
attr source  receivedPacketFromUpperLayer
vector 282  CAIN.ueD2DTx[6].nic.pdcpRrc  sentPacketToLowerLayer:vector(packetBytes)  ETV
attr interpolationmode  none
attr source  sentPacketToLowerLayer
vector 283  CAIN.ueD2DTx[6].nic.mac  receivedPacketFromUpperLayer:vector(packetBytes)  ETV
attr interpolationmode  none
attr source  receivedPacketFromUpperLayer
vector 351  CAIN.ueD2DTx[8].nic.phy  averageCqiDlvect:vector  ETV
attr source  averageCqiDlvect
attr title  "Average Cqi reported in DL, vector"
attr unit  cqi
vector 285  CAIN.ueD2DTx[6].nic.mac  sentPacketToUpperLayer:vector(packetBytes)  ETV
attr interpolationmode  none
attr source  sentPacketToUpperLayer
vector 334  CAIN.ueD2DTx[8].nic.pdcpRrc  receivedPacketFromLowerLayer:vector(packetBytes)  ETV
attr interpolationmode  none
attr source  receivedPacketFromLowerLayer
vector 335  CAIN.ueD2DTx[8].nic.pdcpRrc  sentPacketToUpperLayer:vector(packetBytes)  ETV
attr interpolationmode  none
attr source  sentPacketToUpperLayer
vector 1053  CAIN.ueD2DTx[3].tcp  tcpRcvQueueBytes  ETV
vector 1040  CAIN.ueD2DTx[3].tcp  "advertised window"  ETV
vector 1039  CAIN.ueD2DTx[3].tcp  "receive window"  ETV
vector 1042  CAIN.ueD2DTx[3].tcp  "sent ack"  ETV
vector 198  CAIN.ueD2DTx[3].nic.pdcpRrc  receivedPacketFromUpperLayer:vector(packetBytes)  ETV
attr interpolationmode  none
attr source  receivedPacketFromUpperLayer
vector 201  CAIN.ueD2DTx[3].nic.pdcpRrc  sentPacketToLowerLayer:vector(packetBytes)  ETV
attr interpolationmode  none
attr source  sentPacketToLowerLayer
vector 202  CAIN.ueD2DTx[3].nic.mac  receivedPacketFromUpperLayer:vector(packetBytes)  ETV
attr interpolationmode  none
attr source  receivedPacketFromUpperLayer
vector 1077  CAIN.ueD2DTx[1].tcp  tcpRcvQueueBytes  ETV
vector 1064  CAIN.ueD2DTx[1].tcp  "advertised window"  ETV
vector 1063  CAIN.ueD2DTx[1].tcp  "receive window"  ETV
vector 1066  CAIN.ueD2DTx[1].tcp  "sent ack"  ETV
vector 144  CAIN.ueD2DTx[1].nic.pdcpRrc  receivedPacketFromUpperLayer:vector(packetBytes)  ETV
attr interpolationmode  none
attr source  receivedPacketFromUpperLayer
vector 147  CAIN.ueD2DTx[1].nic.pdcpRrc  sentPacketToLowerLayer:vector(packetBytes)  ETV
attr interpolationmode  none
attr source  sentPacketToLowerLayer
vector 148  CAIN.ueD2DTx[1].nic.mac  receivedPacketFromUpperLayer:vector(packetBytes)  ETV
attr interpolationmode  none
attr source  receivedPacketFromUpperLayer
vector 1101  CAIN.ueD2DTx[15].tcp  tcpRcvQueueBytes  ETV
vector 1088  CAIN.ueD2DTx[15].tcp  "advertised window"  ETV
vector 1087  CAIN.ueD2DTx[15].tcp  "receive window"  ETV
vector 1090  CAIN.ueD2DTx[15].tcp  "sent ack"  ETV
vector 522  CAIN.ueD2DTx[15].nic.pdcpRrc  receivedPacketFromUpperLayer:vector(packetBytes)  ETV
attr interpolationmode  none
attr source  receivedPacketFromUpperLayer
vector 525  CAIN.ueD2DTx[15].nic.pdcpRrc  sentPacketToLowerLayer:vector(packetBytes)  ETV
attr interpolationmode  none
attr source  sentPacketToLowerLayer
vector 526  CAIN.ueD2DTx[15].nic.mac  receivedPacketFromUpperLayer:vector(packetBytes)  ETV
attr interpolationmode  none
attr source  receivedPacketFromUpperLayer
vector 1125  CAIN.ueD2DTx[19].tcp  tcpRcvQueueBytes  ETV
vector 1112  CAIN.ueD2DTx[19].tcp  "advertised window"  ETV
vector 1111  CAIN.ueD2DTx[19].tcp  "receive window"  ETV
vector 1114  CAIN.ueD2DTx[19].tcp  "sent ack"  ETV
vector 630  CAIN.ueD2DTx[19].nic.pdcpRrc  receivedPacketFromUpperLayer:vector(packetBytes)  ETV
attr interpolationmode  none
attr source  receivedPacketFromUpperLayer
vector 633  CAIN.ueD2DTx[19].nic.pdcpRrc  sentPacketToLowerLayer:vector(packetBytes)  ETV
attr interpolationmode  none
attr source  sentPacketToLowerLayer
vector 634  CAIN.ueD2DTx[19].nic.mac  receivedPacketFromUpperLayer:vector(packetBytes)  ETV
attr interpolationmode  none
attr source  receivedPacketFromUpperLayer
vector 528  CAIN.ueD2DTx[15].nic.mac  sentPacketToUpperLayer:vector(packetBytes)  ETV
attr interpolationmode  none
attr source  sentPacketToUpperLayer
vector 636  CAIN.ueD2DTx[19].nic.mac  sentPacketToUpperLayer:vector(packetBytes)  ETV
attr interpolationmode  none
attr source  sentPacketToUpperLayer
8	42753 8 0 0 0 0 1 0 0 0 0
9	42761 8 0 0 0 0 1 0 0 0 0
24	42769 9 0 0 0 0 1 0 0 0 0
25	42778 9 0 0 0 0 1 0 0 0 0
35	42787 9 0 0 0 0 1 0 0 0 0
36	42796 9 0 0 0 0 1 0 0 0 0
56	42805 9 0 0 0 0 1 0 0 0 0
57	42814 9 0 0 0 0 1 0 0 0 0
67	42823 9 0 0 0 0 1 0 0 0 0
68	42832 9 0 0 0 0 1 0 0 0 0
80	42841 301 2037 56942 0.024 0.112 17 44 44 748 32912
81	43142 301 2032 56937 0.024 0.112 17 45 45 765 34425
82	43443 301 2032 56937 0.024 0.112 17 44 44 748 32912
83	43744 301 2037 56942 0.024 0.112 17 45 45 765 34425
84	44045 601 2040 57604 0.024 0.113 34 45 47 1564 71978
85	44646 542023 180 495776 0.002 0.758 30849 0 0 0 0
86	586669 602 2028 57600 0.024 0.113 35 0 47 801 36605
87	587271 451741 719 494929 0.017 0.757 25433 0 0 0 0
88	1039012 300 2090 57600 0.025 0.113 17 26 26 442 11492
89	1039312 589477 1558 495713 0.021 0.757 27834 1 27834 387379695 7188346746985
90	1628789 486926 1903 495713 0.023 0.757 23049 1 23049 265639725 4081908560925
91	2115715 92977 1558 494130 0.021 0.755 4785 72 424 1609493 606409919
92	2208692 451925 1903 495713 0.023 0.757 23049 72 329 5718055 1484345243
93	2660617 83411 1558 494130 0.021 0.755 4785 1 9 42544 379170
96	2744028 496501 719 495713 0.017 0.757 23489 1 23489 275878305 4320162296865
97	3240529 443268 719 495713 0.017 0.757 23489 61 329 1902627 169872449
99	3683797 315 1516 55040 0.021 0.109 18 8 15 242 3352
104	3684112 10 0 0 0 0 1 0 0 0 0
105	3684122 10 0 0 0 0 1 0 0 0 0
117	3684132 27 9217 9217 0.042121352858 0.042121352858 1 44 44 44 1936
118	3684159 170 2674 60047 0.029 0.117 9 45 45 405 18225
119	3684329 170 2674 60047 0.029 0.117 9 44 44 396 17424
120	3684499 27 9217 9217 0.042121352858 0.042121352858 1 45 45 45 2025
121	3684526 27 9220 9220 0.042121352858 0.042121352858 1 45 45 45 2025
122	3684553 35562 1333 495488 0.02 0.757 1894 0 0 0 0
123	3720115 170 2670 60043 0.029 0.117 9 47 47 423 19881
124	3720285 35580 1333 495715 0.02 0.758 1895 0 0 0 0
133	3755865 36830 1333 495488 0.02 0.757 1742 1 1742 1518153 1763587735
134	3792695 36192 1333 495488 0.02 0.757 1742 61 208 307127 54764027
135	3828887 169 2241 58227 0.026 0.114 9 15 15 135 2025
138	3829056 10 0 0 0 0 1 1 1 1 1
144	3829066 28 42278 42278 0.094045599147 0.094045599147 1 44 44 44 1936
147	3829094 28 42278 42278 0.094045599147 0.094045599147 1 45 45 45 2025
148	3829122 28 42281 42281 0.094045599147 0.094045599147 1 45 45 45 2025
149	3829150 35222 1303 495778 0.02 0.758 1875 0 0 0 0
151	3864372 35148 1303 495464 0.02 0.757 1875 0 0 0 0
160	3899520 36830 1303 495464 0.02 0.757 1742 1 1742 1518153 1763587735
161	3936350 36192 1303 495464 0.02 0.757 1742 61 208 307127 54764027
165	3972542 10 0 0 0 0 1 1 1 1 1
171	3972552 27 9225 9225 0.042969444403 0.042969444403 1 44 44 44 1936
174	3972579 27 9225 9225 0.042969444403 0.042969444403 1 45 45 45 2025
175	3972606 46 9228 11012 0.042969444403 0.047 2 45 47 92 4234
176	3972652 32747 1327 495473 0.02 0.757 1744 0 0 0 0
177	4005399 18 11008 11008 0.047 0.047 1 0 0 0 0
178	4005417 32746 1327 495473 0.02 0.757 1744 0 0 0 0
187	4038163 36830 1327 495473 0.02 0.757 1742 1 1742 1518153 1763587735
188	4074993 36192 1327 495473 0.02 0.757 1742 61 208 307127 54764027
192	4111185 10 0 0 0 0 1 1 1 1 1
198	4111195 28 41859 41859 0.093352724272 0.093352724272 1 44 44 44 1936
199	4111223 37 6560 11017 0.038 0.047 2 45 45 90 4050
200	4111260 37 6560 11017 0.038 0.047 2 44 44 88 3872
201	4111297 28 41859 41859 0.093352724272 0.093352724272 1 45 45 45 2025
202	4111325 47 41862 44351 0.093352724272 0.098 2 45 47 92 4234
203	4111372 465821 1091 495866 0.019 0.758 25008 0 0 0 0
204	4577193 55 6556 44347 0.038 0.098 3 0 47 94 4418
205	4577248 465822 1091 495866 0.019 0.758 25008 0 0 0 0
214	5043070 554661 1091 495866 0.019 0.758 25004 1 25004 312612510 5211146337530
215	5597731 503243 1091 495866 0.019 0.758 25004 61 329 3992674 850277172
216	6100974 36 5138 9603 0.035 0.044 2 15 15 30 450
219	6101010 10 0 0 0 0 1 1 1 1 1
225	6101020 26 669 669 0.015271066679 0.015271066679 1 44 44 44 1936
226	6101046 19 19852 19852 0.059 0.059 1 45 45 45 2025
227	6101065 19 19852 19852 0.059 0.059 1 44 44 44 1936
228	6101084 26 669 669 0.015271066679 0.015271066679 1 45 45 45 2025
229	6101110 43 672 1243 0.015271066679 0.02 2 45 47 92 4234
230	6101153 246222 821 495356 0.018 0.757 13178 0 0 0 0
231	6347375 35 1239 19848 0.02 0.059 2 0 47 47 2209
232	6347410 262580 678 495356 0.016 0.757 14058 0 0 0 0
241	6609990 287764 821 495356 0.018 0.757 13175 1 13175 86796900 762395037300
242	6897754 260133 821 495356 0.018 0.757 13175 0 208 1420785 290249229
243	7157887 19 18002 18002 0.056 0.056 1 15 15 15 225
246	7157906 10 0 0 0 0 1 1 1 1 1
252	7157916 27 2959 2959 0.029794597295 0.029794597295 1 44 44 44 1936
255	7157943 27 2959 2959 0.029794597295 0.029794597295 1 45 45 45 2025
256	7157970 2750 2962 492946 0.029794597295 0.754 146 0 45 45 2025
257	7160720 249406 1130 495869 0.019 0.758 13396 0 0 0 0
258	7410126 2723 4710 492942 0.034 0.754 145 0 0 0 0
259	7412849 249324 1130 495869 0.019 0.758 13396 0 0 0 0
268	7662173 288558 1130 495869 0.019 0.758 13250 1 13250 87787875 775488825125
269	7950731 266526 1130 495869 0.019 0.758 13250 61 329 2009283 430200393
273	8217257 10 0 0 0 0 1 1 1 1 1
279	8217267 28 37014 37014 0.085841021361 0.085841021361 1 44 44 44 1936
282	8217295 28 37014 37014 0.085841021361 0.085841021361 1 45 45 45 2025
283	8217323 46 37017 39420 0.085841021361 0.09 2 45 47 92 4234
284	8217369 32747 1321 495482 0.02 0.757 1744 0 0 0 0
285	8250116 17 39416 39416 0.09 0.09 1 0 0 0 0
286	8250133 32746 1321 495482 0.02 0.757 1744 0 0 0 0
295	8282879 36830 1321 495482 0.02 0.757 1742 1 1742 1518153 1763587735
296	8319709 36192 1321 495482 0.02 0.757 1742 61 208 307127 54764027
300	8355901 10 0 0 0 0 1 1 1 1 1
306	8355911 27 2066 2066 0.024730577224 0.024730577224 1 44 44 44 1936
309	8355938 27 2066 2066 0.024730577224 0.024730577224 1 45 45 45 2025
310	8355965 45 2069 2688 0.024730577224 0.029 2 45 47 92 4234
311	8356010 245719 865 495404 0.018 0.757 13148 0 0 0 0
312	8601729 17 2684 2684 0.029 0.029 1 0 0 0 0
313	8601746 262045 865 495404 0.018 0.757 14026 0 0 0 0
322	8863791 287163 865 495404 0.018 0.757 13146 1 13146 86415231 757371889561
323	9150954 259658 865 495404 0.018 0.757 13146 0 208 1155725 191182145
327	9410612 10 0 0 0 0 1 1 1 1 1
333	9410622 27 4696 4696 0.033422728663 0.033422728663 1 44 44 44 1936
334	9410649 38 40733 53401 0.092 0.107 2 45 45 90 4050
335	9410687 38 40733 53401 0.092 0.107 2 44 44 88 3872
336	9410725 27 4696 4696 0.033422728663 0.033422728663 1 45 45 45 2025
337	9410752 45 4699 6572 0.033422728663 0.038 2 45 47 92 4234
338	9410797 251075 909 495452 0.018 0.757 13430 0 0 0 0
339	9661872 55 6568 53397 0.038 0.107 3 0 47 94 4418
340	9661927 259184 909 495452 0.018 0.757 13866 0 0 0 0
349	9921111 293603 909 495452 0.018 0.757 13426 1 13426 90135451 806802421901
350	10214714 264825 909 495452 0.018 0.757 13426 0 208 1140574 188312548
351	10479539 38 38842 50777 0.089 0.104 2 15 15 30 450
354	10479577 10 0 0 0 0 1 1 1 1 1
360	10479587 27 9406 9406 0.043409565084 0.043409565084 1 44 44 44 1936
363	10479614 27 9406 9406 0.043409565084 0.043409565084 1 45 45 45 2025
364	10479641 46 9409 11959 0.043409565084 0.048 2 45 47 92 4234
365	10479687 32747 1309 495470 0.02 0.757 1744 0 0 0 0
366	10512434 18 11955 11955 0.048 0.048 1 0 0 0 0
367	10512452 32746 1309 495470 0.02 0.757 1744 0 0 0 0
376	10545198 36830 1309 495470 0.02 0.757 1742 1 1742 1518153 1763587735
377	10582028 36192 1309 495470 0.02 0.757 1742 61 208 307127 54764027
381	10618220 10 0 0 0 0 1 1 1 1 1
387	10618230 28 22837 22837 0.062577862614 0.062577862614 1 44 44 44 1936
390	10618258 28 22837 22837 0.062577862614 0.062577862614 1 45 45 45 2025
391	10618286 47 22840 25413 0.062577862614 0.067 2 45 47 92 4234
392	10618333 32747 1330 495485 0.02 0.757 1744 0 0 0 0
393	10651080 18 25409 25409 0.067 0.067 1 0 0 0 0
394	10651098 32747 1330 495485 0.02 0.757 1744 0 0 0 0
403	10683845 36830 1330 495485 0.02 0.757 1742 1 1742 1518153 1763587735
404	10720675 36192 1330 495485 0.02 0.757 1742 61 208 307127 54764027
408	10756867 10 0 0 0 0 1 1 1 1 1
414	10756877 28 10261 10261 0.045308000082 0.045308000082 1 44 44 44 1936
417	10756905 28 10261 10261 0.045308000082 0.045308000082 1 45 45 45 2025
418	10756933 46 10264 13916 0.045308000082 0.05 2 45 47 92 4234
419	10756979 243387 1043 495827 0.019 0.758 13065 0 0 0 0
420	11000366 17 13912 13912 0.05 0.05 1 0 0 0 0
421	11000383 243386 1043 495827 0.019 0.758 13065 0 0 0 0
430	11243769 284497 1043 495827 0.019 0.758 13063 1 13063 85327516 743117336844
431	11528266 269469 1043 495827 0.019 0.758 13063 61 329 2223257 458526867
435	11797735 10 0 0 0 0 1 1 1 1 1
441	11797745 27 5051 5051 0.034135579374 0.034135579374 1 44 44 44 1936
444	11797772 27 5051 5051 0.034135579374 0.034135579374 1 45 45 45 2025
445	11797799 45 5054 7230 0.034135579374 0.039 2 45 47 92 4234
446	11797844 32745 1306 495467 0.02 0.757 1744 0 0 0 0
447	11830589 17 7226 7226 0.039 0.039 1 0 0 0 0
448	11830606 32745 1306 495467 0.02 0.757 1744 0 0 0 0
457	11863351 36830 1306 495467 0.02 0.757 1742 1 1742 1518153 1763587735
458	11900181 36192 1306 495467 0.02 0.757 1742 61 208 307127 54764027
462	11936373 10 0 0 0 0 1 1 1 1 1
468	11936383 28 16820 16820 0.053824975863 0.053824975863 1 44 44 44 1936
469	11936411 36 8375 55672 0.041 0.11 2 45 45 90 4050
470	11936447 36 8375 55672 0.041 0.11 2 44 44 88 3872
471	11936483 28 16820 16820 0.053824975863 0.053824975863 1 45 45 45 2025
472	11936511 47 16823 19263 0.053824975863 0.058 2 45 47 92 4234
473	11936558 246177 955 495500 0.018 0.757 13174 0 0 0 0
474	12182735 54 8371 55668 0.041 0.11 3 0 47 94 4418
475	12182789 262432 955 495500 0.018 0.757 14048 0 0 0 0
484	12445221 287680 955 495500 0.018 0.757 13170 1 13170 86731035 761527397645
485	12732901 260189 955 495500 0.018 0.757 13170 0 329 1176261 197330041
486	12993090 37 6631 53420 0.038 0.107 2 15 15 30 450
489	12993127 10 0 0 0 0 1 1 1 1 1
495	12993137 28 19240 19240 0.057867318192 0.057867318192 1 44 44 44 1936
498	12993165 28 19240 19240 0.057867318192 0.057867318192 1 45 45 45 2025
499	12993193 47 19243 22152 0.057867318192 0.062 2 45 47 92 4234
500	12993240 32747 1336 495479 0.02 0.757 1744 0 0 0 0
501	13025987 18 22148 22148 0.062 0.062 1 0 0 0 0
502	13026005 32747 1336 495479 0.02 0.757 1744 0 0 0 0
511	13058752 36830 1336 495479 0.02 0.757 1742 1 1742 1518153 1763587735
512	13095582 36192 1336 495479 0.02 0.757 1742 61 208 307127 54764027
516	13131774 10 0 0 0 0 1 1 1 1 1
522	13131784 27 43466 43466 0.09661692474 0.09661692474 1 44 44 44 1936
525	13131811 27 43466 43466 0.09661692474 0.09661692474 1 45 45 45 2025
526	13131838 46 43469 47365 0.09661692474 0.101 2 45 47 92 4234
527	13131884 32786 1082 495872 0.019 0.758 1746 0 0 0 0
528	13164670 18 47361 47361 0.101 0.101 1 0 0 0 0
529	13164688 32788 1082 495872 0.019 0.758 1746 0 0 0 0
538	13197476 36877 1082 495872 0.019 0.758 1744 1 1744 1521640 1769667320
539	13234353 35367 1082 495872 0.019 0.758 1744 61 166 177188 20734624
543	13269720 10 0 0 0 0 1 1 1 1 1
549	13269730 28 27903 27903 0.070835915371 0.070835915371 1 44 44 44 1936
552	13269758 28 27903 27903 0.070835915371 0.070835915371 1 45 45 45 2025
553	13269786 47 27906 30242 0.070835915371 0.075 2 45 47 92 4234
554	13269833 32746 1339 495491 0.02 0.757 1744 0 0 0 0
555	13302579 18 30238 30238 0.075 0.075 1 0 0 0 0
556	13302597 32747 1339 495491 0.02 0.757 1744 0 0 0 0
565	13335344 36830 1339 495491 0.02 0.757 1742 1 1742 1518153 1763587735
566	13372174 36192 1339 495491 0.02 0.757 1742 61 208 307127 54764027
570	13408366 10 0 0 0 0 1 1 1 1 1
576	13408376 27 2448 2448 0.027295592418 0.027295592418 1 44 44 44 1936
577	13408403 19 25424 25424 0.067 0.067 1 45 45 45 2025
578	13408422 19 25424 25424 0.067 0.067 1 44 44 44 1936
579	13408441 27 2448 2448 0.027295592418 0.027295592418 1 45 45 45 2025
580	13408468 45 2451 3835 0.027295592418 0.032 2 45 47 92 4234
581	13408513 32784 1085 495824 0.019 0.758 1746 0 0 0 0
582	13441297 36 3831 25420 0.032 0.067 2 0 47 47 2209
583	13441333 32784 1085 495824 0.019 0.758 1746 0 0 0 0
592	13474117 36854 1085 495824 0.019 0.758 1743 1 1743 1519896 1766625784
593	13510971 35788 1085 495824 0.019 0.758 1743 61 166 215653 30162213
594	13546759 19 23536 23536 0.064 0.064 1 15 15 15 225
597	13546778 10 0 0 0 0 1 1 1 1 1
603	13546788 28 32719 32719 0.078519724591 0.078519724591 1 44 44 44 1936
606	13546816 28 32719 32719 0.078519724591 0.078519724591 1 45 45 45 2025
607	13546844 47 32722 35121 0.078519724591 0.083 2 45 47 92 4234
608	13546891 32748 1181 495461 0.019 0.757 1744 0 0 0 0
609	13579639 18 35117 35117 0.083 0.083 1 0 0 0 0
610	13579657 32748 1181 495461 0.019 0.757 1744 0 0 0 0
619	13612405 36831 1181 495461 0.019 0.757 1742 1 1742 1518153 1763587735
620	13649236 35761 1181 495461 0.019 0.757 1742 61 208 266519 45099323
624	13684997 10 0 0 0 0 1 1 1 1 1
630	13685007 27 45235 45235 0.09830275926 0.09830275926 1 44 44 44 1936
633	13685034 27 45235 45235 0.09830275926 0.09830275926 1 45 45 45 2025
634	13685061 65 45238 54306 0.09830275926 0.108 3 19 45 94 3286
635	13685126 32783 1324 495476 0.02 0.757 1746 0 0 0 0
636	13717909 36 49718 54302 0.103 0.108 2 0 0 0 0
637	13717945 32783 1324 495476 0.02 0.757 1746 0 0 0 0
646	13750728 36830 1324 495476 0.02 0.757 1742 1 1742 1518153 1763587735
647	13787558 36192 1324 495476 0.02 0.757 1742 61 208 307127 54764027
651	13823750 10 0 0 0 0 1 1 1 1 1
655	13823760 28 666 666 0.015271066679 0.015271066679 1 7504 7504 7504 56310016
656	13823788 28 666 666 0.015271066679 0.015271066679 1 7504 7504 7504 56310016
658	13823816 25 666 666 0.015271066679 0.015271066679 1 0 0 0 0
669	13823841 25 666 666 0.015271066679 0.015271066679 1 0 0 0 0
679	13823866 29 2063 2063 0.024730577224 0.024730577224 1 7504 7504 7504 56310016
680	13823895 29 2063 2063 0.024730577224 0.024730577224 1 7504 7504 7504 56310016
682	13823924 26 2063 2063 0.024730577224 0.024730577224 1 0 0 0 0
693	13823950 26 2063 2063 0.024730577224 0.024730577224 1 0 0 0 0
703	13823976 29 2445 2445 0.027295592418 0.027295592418 1 7504 7504 7504 56310016
704	13824005 29 2445 2445 0.027295592418 0.027295592418 1 7504 7504 7504 56310016
706	13824034 26 2445 2445 0.027295592418 0.027295592418 1 0 0 0 0
717	13824060 26 2445 2445 0.027295592418 0.027295592418 1 0 0 0 0
727	13824086 29 2956 2956 0.029794597295 0.029794597295 1 7504 7504 7504 56310016
728	13824115 29 2956 2956 0.029794597295 0.029794597295 1 7504 7504 7504 56310016
730	13824144 26 2956 2956 0.029794597295 0.029794597295 1 0 0 0 0
741	13824170 26 2956 2956 0.029794597295 0.029794597295 1 0 0 0 0
751	13824196 29 4693 4693 0.033422728663 0.033422728663 1 7504 7504 7504 56310016
752	13824225 29 4693 4693 0.033422728663 0.033422728663 1 7504 7504 7504 56310016
754	13824254 26 4693 4693 0.033422728663 0.033422728663 1 0 0 0 0
765	13824280 26 4693 4693 0.033422728663 0.033422728663 1 0 0 0 0
775	13824306 29 5048 5048 0.034135579374 0.034135579374 1 7504 7504 7504 56310016
776	13824335 29 5048 5048 0.034135579374 0.034135579374 1 7504 7504 7504 56310016
778	13824364 26 5048 5048 0.034135579374 0.034135579374 1 0 0 0 0
789	13824390 26 5048 5048 0.034135579374 0.034135579374 1 0 0 0 0
799	13824416 29 9214 9214 0.042121352858 0.042121352858 1 7504 7504 7504 56310016
800	13824445 29 9214 9214 0.042121352858 0.042121352858 1 7504 7504 7504 56310016
802	13824474 26 9214 9214 0.042121352858 0.042121352858 1 0 0 0 0
813	13824500 26 9214 9214 0.042121352858 0.042121352858 1 0 0 0 0
823	13824526 29 9222 9222 0.042969444403 0.042969444403 1 7504 7504 7504 56310016
824	13824555 29 9222 9222 0.042969444403 0.042969444403 1 7504 7504 7504 56310016
826	13824584 26 9222 9222 0.042969444403 0.042969444403 1 0 0 0 0
837	13824610 26 9222 9222 0.042969444403 0.042969444403 1 0 0 0 0
847	13824636 29 9403 9403 0.043409565084 0.043409565084 1 7504 7504 7504 56310016
848	13824665 29 9403 9403 0.043409565084 0.043409565084 1 7504 7504 7504 56310016
850	13824694 26 9403 9403 0.043409565084 0.043409565084 1 0 0 0 0
861	13824720 26 9403 9403 0.043409565084 0.043409565084 1 0 0 0 0
871	13824746 30 10258 10258 0.045308000082 0.045308000082 1 7504 7504 7504 56310016
872	13824776 30 10258 10258 0.045308000082 0.045308000082 1 7504 7504 7504 56310016
874	13824806 27 10258 10258 0.045308000082 0.045308000082 1 0 0 0 0
885	13824833 27 10258 10258 0.045308000082 0.045308000082 1 0 0 0 0
895	13824860 30 16817 16817 0.053824975863 0.053824975863 1 7504 7504 7504 56310016
896	13824890 30 16817 16817 0.053824975863 0.053824975863 1 7504 7504 7504 56310016
898	13824920 27 16817 16817 0.053824975863 0.053824975863 1 0 0 0 0
909	13824947 27 16817 16817 0.053824975863 0.053824975863 1 0 0 0 0
919	13824974 30 19237 19237 0.057867318192 0.057867318192 1 7504 7504 7504 56310016
920	13825004 30 19237 19237 0.057867318192 0.057867318192 1 7504 7504 7504 56310016
922	13825034 27 19237 19237 0.057867318192 0.057867318192 1 0 0 0 0
933	13825061 27 19237 19237 0.057867318192 0.057867318192 1 0 0 0 0
943	13825088 30 22834 22834 0.062577862614 0.062577862614 1 7504 7504 7504 56310016
944	13825118 30 22834 22834 0.062577862614 0.062577862614 1 7504 7504 7504 56310016
946	13825148 27 22834 22834 0.062577862614 0.062577862614 1 0 0 0 0
957	13825175 27 22834 22834 0.062577862614 0.062577862614 1 0 0 0 0
967	13825202 30 27900 27900 0.070835915371 0.070835915371 1 7504 7504 7504 56310016
968	13825232 30 27900 27900 0.070835915371 0.070835915371 1 7504 7504 7504 56310016
970	13825262 27 27900 27900 0.070835915371 0.070835915371 1 0 0 0 0
981	13825289 27 27900 27900 0.070835915371 0.070835915371 1 0 0 0 0
991	13825316 30 32716 32716 0.078519724591 0.078519724591 1 7504 7504 7504 56310016
992	13825346 30 32716 32716 0.078519724591 0.078519724591 1 7504 7504 7504 56310016
994	13825376 27 32716 32716 0.078519724591 0.078519724591 1 0 0 0 0
1005	13825403 28 32716 32716 0.078519724591 0.078519724591 1 0 0 0 0
1015	13825431 31 37011 37011 0.085841021361 0.085841021361 1 7504 7504 7504 56310016
1016	13825462 31 37011 37011 0.085841021361 0.085841021361 1 7504 7504 7504 56310016
1018	13825493 28 37011 37011 0.085841021361 0.085841021361 1 0 0 0 0
1029	13825521 28 37011 37011 0.085841021361 0.085841021361 1 0 0 0 0
1039	13825549 31 41856 41856 0.093352724272 0.093352724272 1 7504 7504 7504 56310016
1040	13825580 31 41856 41856 0.093352724272 0.093352724272 1 7504 7504 7504 56310016
1042	13825611 28 41856 41856 0.093352724272 0.093352724272 1 0 0 0 0
1053	13825639 28 41856 41856 0.093352724272 0.093352724272 1 0 0 0 0
1063	13825667 31 42275 42275 0.094045599147 0.094045599147 1 7504 7504 7504 56310016
1064	13825698 31 42275 42275 0.094045599147 0.094045599147 1 7504 7504 7504 56310016
1066	13825729 28 42275 42275 0.094045599147 0.094045599147 1 0 0 0 0
1077	13825757 28 42275 42275 0.094045599147 0.094045599147 1 0 0 0 0
1087	13825785 30 43463 43463 0.09661692474 0.09661692474 1 7504 7504 7504 56310016
1088	13825815 30 43463 43463 0.09661692474 0.09661692474 1 7504 7504 7504 56310016
1090	13825845 27 43463 43463 0.09661692474 0.09661692474 1 0 0 0 0
1101	13825872 27 43463 43463 0.09661692474 0.09661692474 1 0 0 0 0
1111	13825899 30 45232 45232 0.09830275926 0.09830275926 1 7504 7504 7504 56310016
1112	13825929 30 45232 45232 0.09830275926 0.09830275926 1 7504 7504 7504 56310016
1114	13825959 27 45232 45232 0.09830275926 0.09830275926 1 0 0 0 0
1125	13825986 27 45232 45232 0.09830275926 0.09830275926 1 0 0 0 0
85	13826013 546342 496205 990119 0.758 1.485 30724 0 0 0 0
87	14372355 455102 496375 989646 0.759 1.485 25288 0 0 0 0
89	14827457 606946 496205 990119 0.758 1.485 27868 27835 55702 1164004558 50422307488170
90	15434403 502864 497542 988363 0.76 1.482 23055 23050 46104 797172735 28585049480455
91	15937267 94456 496205 990119 0.758 1.485 4813 166 424 1618970 609824588
92	16031723 456754 497542 988363 0.76 1.482 23055 151 329 5721990 1485658980
93	16488477 84830 496205 990119 0.758 1.485 4813 9 9 43317 389853
96	16573307 512456 496375 989045 0.759 1.484 23491 23490 46980 827705385 30244446735165
97	17085763 448074 496375 989045 0.759 1.484 23491 61 284 1901669 169715721
122	17533837 35967 496464 989473 0.759 1.484 1893 0 0 0 0
124	17569804 35967 496464 989473 0.759 1.484 1893 0 0 0 0
133	17605771 38456 496464 989473 0.759 1.484 1748 1743 3490 4573642 12412019230
134	17644227 36708 496464 989473 0.759 1.484 1748 166 208 308522 55032284
149	17680935 35967 496434 989449 0.759 1.484 1893 0 0 0 0
151	17716902 35904 496434 989649 0.759 1.485 1894 0 0 0 0
160	17752806 38456 496434 989449 0.759 1.484 1748 1743 3490 4573642 12412019230
161	17791262 36708 496434 989449 0.759 1.484 1748 166 208 308522 55032284
176	17827970 33212 496458 989458 0.759 1.484 1748 0 0 0 0
178	17861182 33212 496458 989458 0.759 1.484 1748 0 0 0 0
187	17894394 38456 496458 989458 0.759 1.484 1748 1743 3490 4573642 12412019230
188	17932850 36708 496458 989458 0.759 1.484 1748 166 208 308522 55032284
203	17969558 477298 495875 990142 0.758 1.485 25354 0 0 0 0
205	18446856 477279 495875 990139 0.758 1.485 25353 0 0 0 0
214	18924135 578691 495875 990139 0.758 1.485 25353 25005 50357 955326393 37355675867685
215	19502826 515325 495875 990139 0.758 1.485 25353 72 329 4054805 864423227
230	20018151 247429 496473 989711 0.759 1.485 13083 0 0 0 0
232	20265580 263833 496473 989711 0.759 1.485 13955 0 0 0 0
241	20529413 299761 496473 989711 0.759 1.485 13083 13176 26258 257957511 5272760763529
242	20829174 261387 496473 989711 0.759 1.485 13083 0 208 1422353 291007901
256	21090561 2774 496356 988986 0.759 1.484 146 0 0 0 0
257	21093335 249694 495926 990022 0.758 1.485 13254 0 0 0 0
258	21343029 2774 496352 988982 0.759 1.484 146 0 0 0 0
259	21345803 249631 495926 990022 0.758 1.485 13255 0 0 0 0
268	21595434 299375 495926 990022 0.758 1.485 13109 13251 26359 259623745 5329575573135
269	21894809 266603 495926 990022 0.758 1.485 13109 61 329 1988271 426026807
284	22161412 33212 496452 989467 0.759 1.484 1748 0 0 0 0
286	22194624 33212 496452 989467 0.759 1.484 1748 0 0 0 0
295	22227836 38456 496452 989467 0.759 1.484 1748 1743 3490 4573642 12412019230
296	22266292 36708 496452 989467 0.759 1.484 1748 166 208 308522 55032284
311	22303000 247429 496521 989755 0.759 1.485 13083 0 0 0 0
313	22550429 263833 496521 989755 0.759 1.485 13955 0 0 0 0
322	22814262 299761 496521 989755 0.759 1.485 13083 13147 26229 257578104 5257810230694
323	23114023 261387 496521 989755 0.759 1.485 13083 0 166 1154581 191042965
338	23375410 255612 496572 989802 0.759 1.485 13518 0 0 0 0
340	23631022 263814 496572 989802 0.759 1.485 13954 0 0 0 0
349	23894836 309684 496572 989802 0.759 1.485 13518 13427 26944 272867589 5713821185619
350	24204520 269568 496572 989802 0.759 1.485 13518 0 166 1151793 190207833
365	24474088 33212 496440 989455 0.759 1.484 1748 0 0 0 0
367	24507300 33212 496440 989455 0.759 1.484 1748 0 0 0 0
376	24540512 38456 496440 989455 0.759 1.484 1748 1743 3490 4573642 12412019230
377	24578968 36708 496440 989455 0.759 1.484 1748 166 208 308522 55032284
392	24615676 33212 496461 989470 0.759 1.484 1748 0 0 0 0
394	24648888 33212 496461 989470 0.759 1.484 1748 0 0 0 0
403	24682100 38456 496461 989470 0.759 1.484 1748 1743 3490 4573642 12412019230
404	24720556 36708 496461 989470 0.759 1.484 1748 166 208 308522 55032284
419	24757264 246939 495974 990067 0.758 1.485 13109 0 0 0 0
421	25004203 246939 495974 990067 0.758 1.485 13109 0 0 0 0
430	25251142 299375 495974 990067 0.758 1.485 13109 13064 26172 257172362 5232934701126
431	25550517 273157 495974 990067 0.758 1.485 13109 101 329 2236168 461950778
446	25823674 33212 496437 989452 0.759 1.484 1748 0 0 0 0
448	25856886 33212 496437 989452 0.759 1.484 1748 0 0 0 0
457	25890098 38456 496437 989452 0.759 1.484 1748 1743 3490 4573642 12412019230
458	25928554 36708 496437 989452 0.759 1.484 1748 166 208 308522 55032284
473	25965262 247429 496617 989845 0.759 1.485 13083 0 0 0 0
475	26212691 263833 496617 989845 0.759 1.485 13955 0 0 0 0
484	26476524 299761 496617 989845 0.759 1.485 13083 13171 26253 257892096 5270181515494
485	26776285 261387 496617 989845 0.759 1.485 13083 0 192 1165943 195110561
500	27037672 33212 496467 989464 0.759 1.484 1748 0 0 0 0
502	27070884 33212 496467 989464 0.759 1.484 1748 0 0 0 0
511	27104096 38456 496467 989464 0.759 1.484 1748 1743 3490 4573642 12412019230
512	27142552 36708 496467 989464 0.759 1.484 1748 166 208 308522 55032284
527	27179260 33174 495965 989407 0.758 1.484 1746 0 0 0 0
529	27212434 33174 495965 989407 0.758 1.484 1746 0 0 0 0
538	27245608 38412 495965 989407 0.758 1.484 1746 1745 3490 4570155 12405939645
539	27284020 35793 495965 989407 0.758 1.484 1746 61 166 177679 20836761
554	27319813 33212 496470 989476 0.759 1.484 1748 0 0 0 0
556	27353025 33212 496470 989476 0.759 1.484 1748 0 0 0 0
565	27386237 38456 496470 989476 0.759 1.484 1748 1743 3490 4573642 12412019230
566	27424693 36708 496470 989476 0.759 1.484 1748 166 208 308522 55032284
581	27461401 33193 495971 989419 0.758 1.484 1747 0 0 0 0
583	27494594 33193 495971 989419 0.758 1.484 1747 0 0 0 0
592	27527787 38434 495971 989419 0.758 1.484 1747 1744 3490 4571899 12408981181
593	27566221 36250 495971 989419 0.758 1.484 1747 61 166 215777 30157657
608	27602471 33212 495920 989446 0.758 1.484 1748 0 0 0 0
610	27635683 33212 495920 989446 0.758 1.484 1748 0 0 0 0
619	27668895 38456 495920 989446 0.758 1.484 1748 1743 3490 4573642 12412019230
620	27707351 36271 495920 989446 0.758 1.484 1748 72 208 267444 45255720
635	27743622 33212 496455 989461 0.759 1.484 1748 0 0 0 0
637	27776834 33212 496455 989461 0.759 1.484 1748 0 0 0 0
646	27810046 38456 496455 989461 0.759 1.484 1748 1743 3490 4573642 12412019230
647	27848502 36708 496455 989461 0.759 1.484 1748 166 208 308522 55032284
85	27885210 577369 990163 1484277 1.485 2.212 30778 0 0 0 0
87	28462579 480969 990342 1483659 1.486 2.212 25346 0 0 0 0
89	28943548 635376 990163 1484275 1.485 2.212 27920 55703 83622 1944977000 1.3730565835084e+14
90	29578924 527114 990212 1484275 1.485 2.212 23130 46105 69234 1333895535 77956295078505
91	30106038 98682 990163 1482900 1.485 2.21 4790 166 424 1611130 606851068
92	30204720 480854 990212 1484275 1.485 2.212 23130 151 329 5740386 1490380692
93	30685574 89102 990163 1482900 1.485 2.21 4790 9 9 43110 387990
96	30774676 537179 990212 1484277 1.485 2.212 23568 46981 70548 1384961736 82477488958744
97	31311855 472593 990212 1484277 1.485 2.212 23568 61 284 1908035 170249939
122	31784448 37761 990340 1484218 1.486 2.212 1890 0 0 0 0
124	31822209 37741 991381 1484218 1.487 2.212 1889 0 0 0 0
133	31859950 40076 991381 1484218 1.487 2.212 1744 3491 5234 7608200 33632808920
134	31900026 38332 991381 1484218 1.487 2.212 1744 166 208 307816 54906352
149	31938358 37741 991351 1484194 1.487 2.212 1889 0 0 0 0
151	31976099 37658 991351 1484194 1.487 2.212 1889 0 0 0 0
160	32013757 40076 991351 1484194 1.487 2.212 1744 3491 5234 7608200 33632808920
161	32053833 38332 991351 1484194 1.487 2.212 1744 166 208 307816 54906352
176	32092165 34844 991375 1484203 1.487 2.212 1744 0 0 0 0
178	32127009 34844 991375 1484203 1.487 2.212 1744 0 0 0 0
187	32161853 40076 991375 1484203 1.487 2.212 1744 3491 5234 7608200 33632808920
188	32201929 38332 991375 1484203 1.487 2.212 1744 166 208 307816 54906352
203	32240261 500384 990145 1484188 1.485 2.212 25267 0 0 0 0
205	32740645 500403 990142 1484188 1.485 2.212 25268 0 0 0 0
214	33241048 601475 990142 1484188 1.485 2.212 25268 50358 75625 1591669222 1.0160604063291e+14
215	33842523 538295 990142 1484188 1.485 2.212 25268 72 329 4036878 860082696
230	34380818 260708 990652 1484086 1.486 2.212 13107 0 0 0 0
232	34641526 278004 990652 1484086 1.486 2.212 13981 0 0 0 0
241	34919530 313136 990652 1484086 1.486 2.212 13107 26259 39365 430066884 14298995991386
242	35232666 274686 990652 1484086 1.486 2.212 13107 0 208 1424500 291465556
256	35507352 2897 992396 1481676 1.489 2.209 145 0 0 0 0
257	35510249 262082 990167 1484149 1.485 2.212 13225 0 0 0 0
258	35772331 2897 992392 1481672 1.489 2.209 145 0 0 0 0
259	35775228 261999 990167 1484149 1.485 2.212 13225 0 0 0 0
268	36037227 311505 990167 1484149 1.485 2.212 13080 26360 39439 430325460 14343976646180
269	36348732 278805 990167 1484149 1.485 2.212 13080 61 329 1983800 425058144
284	36627537 34844 991369 1484212 1.487 2.212 1744 0 0 0 0
286	36662381 34844 991369 1484212 1.487 2.212 1744 0 0 0 0
295	36697225 40076 991369 1484212 1.487 2.212 1744 3491 5234 7608200 33632808920
296	36737301 38332 991369 1484212 1.487 2.212 1744 166 208 307816 54906352
311	36775633 260708 990691 1484134 1.486 2.212 13107 0 0 0 0
313	37036341 278004 990691 1484134 1.486 2.212 13981 0 0 0 0
322	37314345 313136 990691 1484134 1.486 2.212 13107 26230 39336 429686781 14274063135101
323	37627481 274686 990691 1484134 1.486 2.212 13107 0 166 1156250 191321432
338	37902167 269376 990730 1484182 1.486 2.212 13545 0 0 0 0
340	38171543 278024 990730 1484182 1.486 2.212 13982 0 0 0 0
349	38449567 323556 990730 1484182 1.486 2.212 13545 26945 40489 456696765 15605533228845
350	38773123 283356 990730 1484182 1.486 2.212 13545 0 166 1153800 190543260
365	39056479 34844 991357 1484200 1.487 2.212 1744 0 0 0 0
367	39091323 34844 991357 1484200 1.487 2.212 1744 0 0 0 0
376	39126167 40076 991357 1484200 1.487 2.212 1744 3491 5234 7608200 33632808920
377	39166243 38332 991357 1484200 1.487 2.212 1744 166 208 307816 54906352
392	39204575 34844 991378 1484215 1.487 2.212 1744 0 0 0 0
394	39239419 34844 991378 1484215 1.487 2.212 1744 0 0 0 0
403	39274263 40076 991378 1484215 1.487 2.212 1744 3491 5234 7608200 33632808920
404	39314339 38332 991378 1484215 1.487 2.212 1744 166 208 307816 54906352
419	39352671 258938 990460 1484185 1.486 2.212 13067 0 0 0 0
421	39611609 258938 990460 1484185 1.486 2.212 13067 0 0 0 0
430	39870547 311206 990460 1484185 1.486 2.212 13067 26173 39239 427369302 14163469087770
431	40181753 285072 990460 1484185 1.486 2.212 13067 101 329 2226067 459377987
446	40466825 34844 991354 1484197 1.487 2.212 1744 0 0 0 0
448	40501669 34844 991354 1484197 1.487 2.212 1744 0 0 0 0
457	40536513 40076 991354 1484197 1.487 2.212 1744 3491 5234 7608200 33632808920
458	40576589 38332 991354 1484197 1.487 2.212 1744 166 208 307816 54906352
473	40614921 260720 990772 1484230 1.486 2.212 13107 0 0 0 0
475	40875641 278018 990772 1484230 1.486 2.212 13981 0 0 0 0
484	41153659 313148 990772 1484230 1.486 2.212 13107 26254 39360 430001349 14294695650221
485	41466807 274698 990772 1484230 1.486 2.212 13107 0 192 1167586 195379720
500	41741505 34844 991384 1484209 1.487 2.212 1744 0 0 0 0
502	41776349 34844 991384 1484209 1.487 2.212 1744 0 0 0 0
511	41811193 40076 991384 1484209 1.487 2.212 1744 3491 5234 7608200 33632808920
512	41851269 38332 991384 1484209 1.487 2.212 1744 166 208 307816 54906352
527	41889601 34844 990499 1484152 1.486 2.212 1744 0 0 0 0
529	41924445 34844 990499 1484152 1.486 2.212 1744 0 0 0 0
538	41959289 40076 990499 1484152 1.486 2.212 1744 3491 5234 7608200 33632808920
539	41999365 37460 990499 1484152 1.486 2.212 1744 61 166 177452 20805484
554	42036825 34844 991387 1484221 1.487 2.212 1744 0 0 0 0
556	42071669 34844 991387 1484221 1.487 2.212 1744 0 0 0 0
565	42106513 40076 991387 1484221 1.487 2.212 1744 3491 5234 7608200 33632808920
566	42146589 38332 991387 1484221 1.487 2.212 1744 166 208 307816 54906352
581	42184921 34844 990502 1484164 1.486 2.212 1744 0 0 0 0
583	42219765 34844 990502 1484164 1.486 2.212 1744 0 0 0 0
592	42254609 40076 990502 1484164 1.486 2.212 1744 3491 5234 7608200 33632808920
593	42294685 37896 990502 1484164 1.486 2.212 1744 61 166 215384 30098824
608	42332581 34844 990598 1484191 1.486 2.212 1744 0 0 0 0
610	42367425 34844 990598 1484191 1.486 2.212 1744 0 0 0 0
619	42402269 40076 990598 1484191 1.486 2.212 1744 3491 5234 7608200 33632808920
620	42442345 37896 990598 1484191 1.486 2.212 1744 72 208 266832 45152160
635	42480241 34844 991372 1484206 1.487 2.212 1744 0 0 0 0
637	42515085 34844 991372 1484206 1.487 2.212 1744 0 0 0 0
646	42549929 40076 991372 1484206 1.487 2.212 1744 3491 5234 7608200 33632808920
647	42590005 38332 991372 1484206 1.487 2.212 1744 166 208 307816 54906352
85	42628337 578545 1484279 1977735 2.212 2.939 30790 0 0 0 0
87	43206882 480392 1485085 1978356 2.214 2.94 25288 0 0 0 0
89	43687274 648138 1484277 1977705 2.212 2.938 27935 83623 111557 2726176650 2.6786420215662e+14
90	44335412 528010 1484277 1977113 2.212 2.937 23139 69235 92373 1869723756 1.5211356911411e+14
91	44863422 98978 1484895 1977705 2.213 2.938 4796 166 424 1613200 607640992
92	44962400 481732 1484277 1977113 2.212 2.937 23139 151 329 5743056 1491183192
93	45444132 89386 1484895 1977705 2.213 2.938 4796 9 9 43164 388476
96	45533518 538015 1484279 1977735 2.212 2.939 23574 70549 94122 1940977077 1.6090305653497e+14
97	46071533 473397 1484279 1977735 2.212 2.939 23574 61 284 1907848 170190088
122	46544930 37860 1485174 1978163 2.214 2.939 1893 0 0 0 0
124	46582790 37880 1484445 1978163 2.213 2.939 1894 0 0 0 0
133	46620670 40204 1485174 1978163 2.214 2.939 1748 5235 6982 10677658 65669558830
134	46660874 38456 1485174 1978163 2.214 2.939 1748 166 208 308522 55032284
149	46699330 37880 1484468 1978139 2.213 2.939 1894 0 0 0 0
151	46737210 37800 1485144 1978359 2.214 2.94 1894 0 0 0 0
160	46775010 40204 1485144 1978139 2.214 2.939 1748 5235 6982 10677658 65669558830
161	46815214 38456 1485144 1978139 2.214 2.939 1748 166 208 308522 55032284
176	46853670 34960 1485168 1978148 2.214 2.939 1748 0 0 0 0
178	46888630 34960 1485168 1978148 2.214 2.939 1748 0 0 0 0
187	46923590 40204 1485168 1978148 2.214 2.939 1748 5235 6982 10677658 65669558830
188	46963794 38456 1485168 1978148 2.214 2.939 1748 166 208 308522 55032284
203	47002250 502114 1484520 1978133 2.213 2.939 25319 0 0 0 0
205	47504364 502114 1484520 1978133 2.213 2.939 25319 0 0 0 0
214	48006478 604335 1484520 1978133 2.213 2.939 25319 75626 100944 2235287915 1.986949593684e+14
215	48610813 540079 1484520 1978133 2.213 2.939 25319 72 329 4044280 861541746
230	49150892 260369 1485183 1978394 2.214 2.94 13074 0 0 0 0
232	49411261 277611 1485183 1978394 2.214 2.94 13944 0 0 0 0
241	49688872 312665 1485183 1978394 2.214 2.94 13074 39366 52439 600129285 27733662167725
242	50001537 274327 1485183 1978394 2.214 2.94 13074 0 208 1422353 291007901
256	50275864 2920 1485066 1977716 2.214 2.939 146 0 0 0 0
257	50278784 262806 1484470 1978094 2.213 2.939 13243 0 0 0 0
258	50541590 2920 1485062 1977712 2.214 2.939 146 0 0 0 0
259	50544510 262726 1484559 1978364 2.213 2.94 13243 0 0 0 0
268	50807236 312274 1484559 1978094 2.213 2.939 13097 39440 52536 602304836 27886007035516
269	51119510 279525 1484559 1978094 2.213 2.939 13097 61 329 1985107 425187299
284	51399035 34960 1485162 1978157 2.214 2.939 1748 0 0 0 0
286	51433995 34960 1485162 1978157 2.214 2.939 1748 0 0 0 0
295	51468955 40204 1485162 1978157 2.214 2.939 1748 5235 6982 10677658 65669558830
296	51509159 38456 1485162 1978157 2.214 2.939 1748 166 208 308522 55032284
311	51547615 260274 1485231 1978253 2.214 2.939 13069 0 0 0 0
313	51807889 277516 1485231 1978253 2.214 2.939 13939 0 0 0 0
322	52085405 312550 1485231 1978253 2.214 2.939 13069 39337 52405 599488099 27685132672099
323	52397955 274232 1485231 1978253 2.214 2.939 13069 0 166 1154581 191042965
338	52672187 268875 1485282 1978295 2.214 2.939 13503 0 0 0 0
340	52941062 277496 1485282 1978295 2.214 2.939 13938 0 0 0 0
349	53218558 322887 1485282 1978295 2.214 2.939 13503 40490 53992 637895223 30339976196495
350	53541445 282831 1485282 1978295 2.214 2.939 13503 0 166 1151793 190207833
365	53824276 34960 1485150 1978145 2.214 2.939 1748 0 0 0 0
367	53859236 34960 1485150 1978145 2.214 2.939 1748 0 0 0 0
376	53894196 40204 1485150 1978145 2.214 2.939 1748 5235 6982 10677658 65669558830
377	53934400 38456 1485150 1978145 2.214 2.939 1748 166 208 308522 55032284
392	53972856 34960 1485171 1978160 2.214 2.939 1748 0 0 0 0
394	54007816 34960 1485171 1978160 2.214 2.939 1748 0 0 0 0
403	54042776 40204 1485171 1978160 2.214 2.939 1748 5235 6982 10677658 65669558830
404	54082980 38456 1485171 1978160 2.214 2.939 1748 166 208 308522 55032284
419	54121436 259886 1484472 1978130 2.213 2.939 13097 0 0 0 0
421	54381322 259886 1484472 1978130 2.213 2.939 13097 0 0 0 0
430	54641208 312274 1484472 1978130 2.213 2.939 13097 39240 52336 599685436 27645608981116
431	54953482 286080 1484472 1978130 2.213 2.939 13097 101 329 2231180 460433510
446	55239562 34960 1485147 1978142 2.214 2.939 1748 0 0 0 0
448	55274522 34960 1485147 1978142 2.214 2.939 1748 0 0 0 0
457	55309482 40204 1485147 1978142 2.214 2.939 1748 5235 6982 10677658 65669558830
458	55349686 38456 1485147 1978142 2.214 2.939 1748 166 208 308522 55032284
473	55388142 260274 1485327 1978334 2.214 2.939 13069 0 0 0 0
475	55648416 277516 1485327 1978334 2.214 2.939 13939 0 0 0 0
484	55925932 312550 1485327 1978334 2.214 2.939 13069 39361 52429 599801755 27713915628595
485	56238482 274232 1485327 1978334 2.214 2.939 13069 0 192 1165943 195110561
500	56512714 34960 1485177 1978154 2.214 2.939 1748 0 0 0 0
502	56547674 34960 1485177 1978154 2.214 2.939 1748 0 0 0 0
511	56582634 40204 1485177 1978154 2.214 2.939 1748 5235 6982 10677658 65669558830
[...]
349	187511802 333474 5932115 6424648 8.734 9.435 13390 162099 175488 2260144965 3.816978392502e+14
350	187845276 280356 5932115 6424648 8.734 9.435 13390 0 208 1141451 188420935
351	188125632 42 6185701 6199123 9.089 9.104 2 15 15 30 450
360	188125674 30 6146910 6146910 9.043409565084 9.043409565084 1 44 44 44 1936
363	188125704 30 6146910 6146910 9.043409565084 9.043409565084 1 45 45 45 2025
364	188125734 51 6146913 6150272 9.043409565084 9.048 2 45 47 92 4234
365	188125785 34888 5931983 6424301 8.734 9.434 1745 0 0 0 0
366	188160673 20 6150268 6150268 9.048 9.048 1 0 0 0 0
367	188160693 34888 5931983 6424301 8.734 9.434 1745 0 0 0 0
376	188195581 41820 5931983 6424301 8.734 9.434 1743 20938 22680 38013087 829468690855
377	188237401 38328 5931983 6424301 8.734 9.434 1743 61 208 306764 54653952
387	188275729 30 6164314 6164314 9.062577862614 9.062577862614 1 44 44 44 1936
390	188275759 30 6164314 6164314 9.062577862614 9.062577862614 1 45 45 45 2025
391	188275789 51 6164317 6167530 9.062577862614 9.067 2 45 47 92 4234
392	188275840 34888 5932004 6424316 8.734 9.434 1745 0 0 0 0
393	188310728 20 6167526 6167526 9.067 9.067 1 0 0 0 0
394	188310748 34888 5932004 6424316 8.734 9.434 1745 0 0 0 0
403	188345636 41820 5932004 6424316 8.734 9.434 1743 20938 22680 38013087 829468690855
404	188387456 38328 5932004 6424316 8.734 9.434 1743 61 208 306764 54653952
414	188425784 30 6148186 6148186 9.045308000082 9.045308000082 1 44 44 44 1936
417	188425814 30 6148186 6148186 9.045308000082 9.045308000082 1 45 45 45 2025
418	188425844 50 6148189 6152617 9.045308000082 9.05 2 45 47 92 4234
419	188425894 258221 5931325 6424732 8.733 9.435 13017 0 0 0 0
420	188684115 19 6152613 6152613 9.05 9.05 1 0 0 0 0
421	188684134 258220 5931325 6424732 8.733 9.435 13017 0 0 0 0
430	188942354 323256 5931325 6424732 8.733 9.435 13015 156955 169969 2127457930 3.4794224596744e+14
431	189265610 284198 5931325 6424732 8.733 9.435 13015 61 329 2216220 457276664
441	189549808 30 6139125 6139125 9.034135579374 9.034135579374 1 44 44 44 1936
444	189549838 30 6139125 6139125 9.034135579374 9.034135579374 1 45 45 45 2025
445	189549868 51 6139128 6142945 9.034135579374 9.039 2 45 47 92 4234
446	189549919 34888 5931980 6424298 8.734 9.434 1745 0 0 0 0
447	189584807 20 6142941 6142941 9.039 9.039 1 0 0 0 0
448	189584827 34888 5931980 6424298 8.734 9.434 1745 0 0 0 0
457	189619715 41820 5931980 6424298 8.734 9.434 1743 20938 22680 38013087 829468690855
458	189661535 38328 5931980 6424298 8.734 9.434 1743 61 208 306764 54653952
468	189699863 30 6156398 6156398 9.053824975863 9.053824975863 1 44 44 44 1936
469	189699893 41 6144919 6204018 9.041 9.11 2 45 45 90 4050
470	189699934 41 6144919 6204018 9.041 9.11 2 44 44 88 3872
471	189699975 30 6156398 6156398 9.053824975863 9.053824975863 1 45 45 45 2025
472	189700005 51 6156401 6159718 9.053824975863 9.058 2 45 47 92 4234
473	189700056 262846 5932160 6424691 8.734 9.435 13202 0 0 0 0
474	189962902 61 6144915 6204014 9.041 9.11 3 0 47 94 4418
475	189962963 280007 5932160 6424691 8.734 9.435 14068 0 0 0 0
484	190242970 328756 5932160 6424691 8.734 9.435 13198 157286 170483 2162947631 3.5466516792472e+14
485	190571726 277003 5932160 6424691 8.734 9.435 13198 0 329 1188178 199756912
486	190848729 42 6141973 6201766 9.038 9.107 2 15 15 30 450
495	190848771 30 6159695 6159695 9.057867318192 9.057867318192 1 44 44 44 1936
498	190848801 30 6159695 6159695 9.057867318192 9.057867318192 1 45 45 45 2025
499	190848831 51 6159698 6163383 9.057867318192 9.062 2 45 47 92 4234
500	190848882 34888 5932010 6424310 8.734 9.434 1745 0 0 0 0
501	190883770 20 6163379 6163379 9.062 9.062 1 0 0 0 0
502	190883790 34888 5932010 6424310 8.734 9.434 1745 0 0 0 0
511	190918678 41820 5932010 6424310 8.734 9.434 1743 20938 22680 38013087 829468690855
512	190960498 38328 5932010 6424310 8.734 9.434 1743 61 208 306764 54653952
522	190998826 29 6191729 6191729 9.09661692474 9.09661692474 1 44 44 44 1936
525	190998855 29 6191729 6191729 9.09661692474 9.09661692474 1 45 45 45 2025
526	190998884 50 6191732 6195711 9.09661692474 9.101 2 45 47 92 4234
527	190998934 34889 5931364 6424253 8.733 9.434 1745 0 0 0 0
528	191033823 20 6195707 6195707 9.101 9.101 1 0 0 0 0
529	191033843 34891 5931364 6424253 8.733 9.434 1745 0 0 0 0
538	191068734 41823 5931364 6424253 8.733 9.434 1743 20938 22680 38013087 829468690855
539	191110557 37465 5931364 6424253 8.733 9.434 1743 61 166 177127 20730903
549	191148022 30 6170850 6170850 9.070835915371 9.070835915371 1 44 44 44 1936
552	191148052 30 6170850 6170850 9.070835915371 9.070835915371 1 45 45 45 2025
553	191148082 51 6170853 6174080 9.070835915371 9.075 2 45 47 92 4234
554	191148133 34887 5932013 6424322 8.734 9.434 1745 0 0 0 0
555	191183020 20 6174076 6174076 9.075 9.075 1 0 0 0 0
556	191183040 34888 5932013 6424322 8.734 9.434 1745 0 0 0 0
565	191217928 41820 5932013 6424322 8.734 9.434 1743 20938 22680 38013087 829468690855
566	191259748 38328 5932013 6424322 8.734 9.434 1743 61 208 306764 54653952
576	191298076 30 6132976 6132976 9.027295592418 9.027295592418 1 44 44 44 1936
577	191298106 21 6167541 6167541 9.067 9.067 1 45 45 45 2025
578	191298127 21 6167541 6167541 9.067 9.067 1 44 44 44 1936
579	191298148 30 6132976 6132976 9.027295592418 9.027295592418 1 45 45 45 2025
580	191298178 51 6132979 6136656 9.027295592418 9.032 2 45 47 92 4234
581	191298229 34910 5931367 6424265 8.733 9.434 1746 0 0 0 0
582	191333139 41 6136652 6167537 9.032 9.067 2 0 47 47 2209
583	191333180 34910 5931367 6424265 8.733 9.434 1746 0 0 0 0
592	191368090 41822 5931367 6424265 8.733 9.434 1743 20938 22680 38013087 829468690855
593	191409912 37910 5931367 6424265 8.733 9.434 1743 61 166 215943 30222843
594	191447822 21 6165169 6165169 9.064 9.064 1 15 15 15 225
603	191447843 30 6177434 6177434 9.078519724591 9.078519724591 1 44 44 44 1936
606	191447873 30 6177434 6177434 9.078519724591 9.078519724591 1 45 45 45 2025
607	191447903 51 6177437 6180714 9.078519724591 9.083 2 45 47 92 4234
608	191447954 34889 5931463 6424292 8.733 9.434 1745 0 0 0 0
609	191482843 20 6180710 6180710 9.083 9.083 1 0 0 0 0
610	191482863 34889 5931463 6424292 8.733 9.434 1745 0 0 0 0
619	191517752 41821 5931463 6424292 8.733 9.434 1743 20938 22680 38013087 829468690855
620	191559573 37897 5931463 6424292 8.733 9.434 1743 61 208 266156 44989248
630	191597470 29 6193581 6193581 9.09830275926 9.09830275926 1 44 44 44 1936
633	191597499 29 6193581 6193581 9.09830275926 9.09830275926 1 45 45 45 2025
634	191597528 71 6193584 6202652 9.09830275926 9.108 3 19 45 94 3286
635	191597599 34928 5931998 6424307 8.734 9.434 1747 0 0 0 0
636	191632527 40 6198064 6202648 9.103 9.108 2 0 0 0 0
637	191632567 34928 5931998 6424307 8.734 9.434 1747 0 0 0 0
646	191667495 41820 5931998 6424307 8.734 9.434 1743 20938 22680 38013087 829468690855
647	191709315 38328 5931998 6424307 8.734 9.434 1743 61 208 306764 54653952
655	191747643 32 6123490 6123490 9.015271066679 9.015271066679 1 7504 7504 7504 56310016
656	191747675 32 6123490 6123490 9.015271066679 9.015271066679 1 7504 7504 7504 56310016
658	191747707 29 6123490 6123490 9.015271066679 9.015271066679 1 0 0 0 0
669	191747736 29 6123490 6123490 9.015271066679 9.015271066679 1 0 0 0 0
679	191747765 32 6130665 6130665 9.024730577224 9.024730577224 1 7504 7504 7504 56310016
680	191747797 32 6130665 6130665 9.024730577224 9.024730577224 1 7504 7504 7504 56310016
682	191747829 29 6130665 6130665 9.024730577224 9.024730577224 1 0 0 0 0
693	191747858 29 6130665 6130665 9.024730577224 9.024730577224 1 0 0 0 0
703	191747887 32 6132973 6132973 9.027295592418 9.027295592418 1 7504 7504 7504 56310016
704	191747919 32 6132973 6132973 9.027295592418 9.027295592418 1 7504 7504 7504 56310016
706	191747951 29 6132973 6132973 9.027295592418 9.027295592418 1 0 0 0 0
717	191747980 29 6132973 6132973 9.027295592418 9.027295592418 1 0 0 0 0
727	191748009 32 6134591 6134591 9.029794597295 9.029794597295 1 7504 7504 7504 56310016
728	191748041 32 6134591 6134591 9.029794597295 9.029794597295 1 7504 7504 7504 56310016
730	191748073 29 6134591 6134591 9.029794597295 9.029794597295 1 0 0 0 0
741	191748102 29 6134591 6134591 9.029794597295 9.029794597295 1 0 0 0 0
751	191748131 32 6138396 6138396 9.033422728663 9.033422728663 1 7504 7504 7504 56310016
752	191748163 32 6138396 6138396 9.033422728663 9.033422728663 1 7504 7504 7504 56310016
754	191748195 29 6138396 6138396 9.033422728663 9.033422728663 1 0 0 0 0
765	191748224 29 6138396 6138396 9.033422728663 9.033422728663 1 0 0 0 0
775	191748253 32 6139122 6139122 9.034135579374 9.034135579374 1 7504 7504 7504 56310016
776	191748285 32 6139122 6139122 9.034135579374 9.034135579374 1 7504 7504 7504 56310016
778	191748317 29 6139122 6139122 9.034135579374 9.034135579374 1 0 0 0 0
789	191748346 29 6139122 6139122 9.034135579374 9.034135579374 1 0 0 0 0
799	191748375 32 6146466 6146466 9.042121352858 9.042121352858 1 7504 7504 7504 56310016
800	191748407 32 6146466 6146466 9.042121352858 9.042121352858 1 7504 7504 7504 56310016
802	191748439 29 6146466 6146466 9.042121352858 9.042121352858 1 0 0 0 0
813	191748468 29 6146466 6146466 9.042121352858 9.042121352858 1 0 0 0 0
823	191748497 32 6146473 6146473 9.042969444403 9.042969444403 1 7504 7504 7504 56310016
824	191748529 32 6146473 6146473 9.042969444403 9.042969444403 1 7504 7504 7504 56310016
826	191748561 29 6146473 6146473 9.042969444403 9.042969444403 1 0 0 0 0
837	191748590 29 6146473 6146473 9.042969444403 9.042969444403 1 0 0 0 0
847	191748619 32 6146907 6146907 9.043409565084 9.043409565084 1 7504 7504 7504 56310016
848	191748651 32 6146907 6146907 9.043409565084 9.043409565084 1 7504 7504 7504 56310016
850	191748683 29 6146907 6146907 9.043409565084 9.043409565084 1 0 0 0 0
861	191748712 29 6146907 6146907 9.043409565084 9.043409565084 1 0 0 0 0
871	191748741 32 6148183 6148183 9.045308000082 9.045308000082 1 7504 7504 7504 56310016
872	191748773 32 6148183 6148183 9.045308000082 9.045308000082 1 7504 7504 7504 56310016
874	191748805 29 6148183 6148183 9.045308000082 9.045308000082 1 0 0 0 0
885	191748834 29 6148183 6148183 9.045308000082 9.045308000082 1 0 0 0 0
895	191748863 32 6156395 6156395 9.053824975863 9.053824975863 1 7504 7504 7504 56310016
896	191748895 32 6156395 6156395 9.053824975863 9.053824975863 1 7504 7504 7504 56310016
898	191748927 29 6156395 6156395 9.053824975863 9.053824975863 1 0 0 0 0
909	191748956 29 6156395 6156395 9.053824975863 9.053824975863 1 0 0 0 0
919	191748985 32 6159692 6159692 9.057867318192 9.057867318192 1 7504 7504 7504 56310016
920	191749017 32 6159692 6159692 9.057867318192 9.057867318192 1 7504 7504 7504 56310016
922	191749049 29 6159692 6159692 9.057867318192 9.057867318192 1 0 0 0 0
933	191749078 29 6159692 6159692 9.057867318192 9.057867318192 1 0 0 0 0
943	191749107 32 6164311 6164311 9.062577862614 9.062577862614 1 7504 7504 7504 56310016
944	191749139 32 6164311 6164311 9.062577862614 9.062577862614 1 7504 7504 7504 56310016
946	191749171 29 6164311 6164311 9.062577862614 9.062577862614 1 0 0 0 0
957	191749200 29 6164311 6164311 9.062577862614 9.062577862614 1 0 0 0 0
967	191749229 32 6170847 6170847 9.070835915371 9.070835915371 1 7504 7504 7504 56310016
968	191749261 32 6170847 6170847 9.070835915371 9.070835915371 1 7504 7504 7504 56310016
970	191749293 29 6170847 6170847 9.070835915371 9.070835915371 1 0 0 0 0
981	191749322 29 6170847 6170847 9.070835915371 9.070835915371 1 0 0 0 0
991	191749351 32 6177431 6177431 9.078519724591 9.078519724591 1 7504 7504 7504 56310016
992	191749383 32 6177431 6177431 9.078519724591 9.078519724591 1 7504 7504 7504 56310016
994	191749415 29 6177431 6177431 9.078519724591 9.078519724591 1 0 0 0 0
1005	191749444 30 6177431 6177431 9.078519724591 9.078519724591 1 0 0 0 0
1015	191749474 33 6183172 6183172 9.085841021361 9.085841021361 1 7504 7504 7504 56310016
1016	191749507 33 6183172 6183172 9.085841021361 9.085841021361 1 7504 7504 7504 56310016
1018	191749540 30 6183172 6183172 9.085841021361 9.085841021361 1 0 0 0 0
1029	191749570 30 6183172 6183172 9.085841021361 9.085841021361 1 0 0 0 0
1039	191749600 33 6189697 6189697 9.093352724272 9.093352724272 1 7504 7504 7504 56310016
1040	191749633 33 6189697 6189697 9.093352724272 9.093352724272 1 7504 7504 7504 56310016
1042	191749666 30 6189697 6189697 9.093352724272 9.093352724272 1 0 0 0 0
1053	191749696 30 6189697 6189697 9.093352724272 9.093352724272 1 0 0 0 0
1063	191749726 33 6190269 6190269 9.094045599147 9.094045599147 1 7504 7504 7504 56310016
1064	191749759 33 6190269 6190269 9.094045599147 9.094045599147 1 7504 7504 7504 56310016
1066	191749792 30 6190269 6190269 9.094045599147 9.094045599147 1 0 0 0 0
1077	191749822 30 6190269 6190269 9.094045599147 9.094045599147 1 0 0 0 0
1087	191749852 32 6191726 6191726 9.09661692474 9.09661692474 1 7504 7504 7504 56310016
1088	191749884 32 6191726 6191726 9.09661692474 9.09661692474 1 7504 7504 7504 56310016
1090	191749916 29 6191726 6191726 9.09661692474 9.09661692474 1 0 0 0 0
1101	191749945 29 6191726 6191726 9.09661692474 9.09661692474 1 0 0 0 0
1111	191749974 32 6193578 6193578 9.09830275926 9.09830275926 1 7504 7504 7504 56310016
1112	191750006 32 6193578 6193578 9.09830275926 9.09830275926 1 7504 7504 7504 56310016
1114	191750038 29 6193578 6193578 9.09830275926 9.09830275926 1 0 0 0 0
1125	191750067 29 6193578 6193578 9.09830275926 9.09830275926 1 0 0 0 0
85	191750096 450476 6424828 6809092 9.435 10 23984 0 0 0 0
87	192200572 373514 6425188 6808422 9.436 10 19662 0 0 0 0
89	192574086 517560 6424828 6809092 9.435 10 21765 362822 384586 8133667560 3.0404433028298e+15
90	193091646 429088 6425058 6809092 9.435 10 18020 300443 318462 5576334050 1.7260981344068e+15
91	193520734 77237 6424828 6808986 9.435 10 3745 166 424 1259630 474452228
92	193597971 375028 6425058 6809092 9.435 10 18020 151 329 4472360 1161204720
93	193972999 73492 6424828 6808986 9.435 10 3745 10 10 37450 374500
96	194046491 437224 6425058 6809092 9.435 10 18359 306125 324483 5788666136 1.825705250164e+15
97	194483715 368547 6425058 6809092 9.435 10 18359 61 284 1485910 132533056
122	194852262 29380 6425186 6808229 9.436 9.999 1469 0 0 0 0
124	194881642 29380 6426227 6808229 9.437 9.999 1469 0 0 0 0
133	194911022 32544 6426227 6808229 9.437 9.999 1356 22681 24036 31674126 740067849226
134	194943566 29832 6426227 6808229 9.437 9.999 1356 166 208 239334 42690948
149	194973398 29380 6426197 6808205 9.437 9.999 1469 0 0 0 0
151	195002778 29316 6426197 6808425 9.437 10 1469 0 0 0 0
160	195032094 32544 6426197 6808205 9.437 9.999 1356 22681 24036 31674126 740067849226
161	195064638 29832 6426197 6808205 9.437 9.999 1356 166 208 239334 42690948
176	195094470 27120 6426221 6808214 9.437 9.999 1356 0 0 0 0
178	195121590 27120 6426221 6808214 9.437 9.999 1356 0 0 0 0
187	195148710 32544 6426221 6808214 9.437 9.999 1356 22681 24036 31674126 740067849226
188	195181254 29832 6426221 6808214 9.437 9.999 1356 166 208 239334 42690948
203	195211086 390424 6424813 6808936 9.435 10 19694 0 0 0 0
205	195601510 390424 6424813 6808936 9.435 10 19694 0 0 0 0
214	195991934 488894 6424813 6808936 9.435 10 19694 327871 347564 6651008445 2.2467984769816e+15
215	196480828 419981 6424813 6808936 9.435 10 19694 72 329 3150495 671752051
230	196900809 202504 6425498 6808487 9.436 10 10170 0 0 0 0
232	197103313 215936 6425498 6808487 9.436 10 10848 0 0 0 0
241	197319249 253354 6425498 6808487 9.436 10 10170 170561 180730 1786314735 3.1384580077834e+14
242	197572603 213352 6425498 6808487 9.436 10 10170 0 208 1105479 226183851
256	197785955 2260 6427242 6807782 9.439 9.999 113 0 0 0 0
257	197788215 204516 6424832 6808979 9.435 10 10309 0 0 0 0
258	197992731 2260 6427238 6807778 9.439 9.999 113 0 0 0 0
259	197994991 204452 6424832 6808979 9.435 10 10309 0 0 0 0
268	198199443 253236 6424832 6808979 9.435 10 10196 170785 180980 1793297970 3.1549806020847e+14
269	198452679 217563 6424832 6808979 9.435 10 10196 61 329 1548936 332183954
284	198670242 27120 6426215 6808223 9.437 9.999 1356 0 0 0 0
286	198697362 27120 6426215 6808223 9.437 9.999 1356 0 0 0 0
295	198724482 32544 6426215 6808223 9.437 9.999 1356 22681 24036 31674126 740067849226
296	198757026 29832 6426215 6808223 9.437 9.999 1356 166 208 239334 42690948
311	198786858 202504 6425537 6808531 9.436 10 10170 0 0 0 0
313	198989362 215936 6425537 6808531 9.436 10 10848 0 0 0 0
322	199205298 253354 6425537 6808531 9.436 10 10170 170362 180531 1784290905 3.1313525025598e+14
323	199458652 213352 6425537 6808531 9.436 10 10170 0 166 897333 148478271
338	199672004 209220 6425576 6808578 9.436 10 10509 0 0 0 0
340	199881224 215936 6425576 6808578 9.436 10 10848 0 0 0 0
349	200097160 261765 6425576 6808578 9.436 10 10509 175489 185997 1899428187 3.4340506582725e+14
350	200358925 220068 6425576 6808578 9.436 10 10509 0 166 895299 147851799
365	200578993 27120 6426203 6808211 9.437 9.999 1356 0 0 0 0
367	200606113 27120 6426203 6808211 9.437 9.999 1356 0 0 0 0
376	200633233 32544 6426203 6808211 9.437 9.999 1356 22681 24036 31674126 740067849226
377	200665777 29832 6426203 6808211 9.437 9.999 1356 166 208 239334 42690948
392	200695609 27120 6426224 6808226 9.437 9.999 1356 0 0 0 0
394	200722729 27120 6426224 6808226 9.437 9.999 1356 0 0 0 0
403	200749849 32544 6426224 6808226 9.437 9.999 1356 22681 24036 31674126 740067849226
404	200782393 29832 6426224 6808226 9.437 9.999 1356 166 208 239334 42690948
419	200812225 201996 6424877 6808843 9.435 10 10183 0 0 0 0
421	201014221 201996 6424877 6808843 9.435 10 10183 0 0 0 0
430	201216217 252911 6424877 6808843 9.435 10 10183 169970 180152 1782646163 3.1215981250664e+14
431	201469128 222362 6424877 6808843 9.435 10 10183 101 329 1736508 358652338
446	201691490 27120 6426200 6808208 9.437 9.999 1356 0 0 0 0
448	201718610 27120 6426200 6808208 9.437 9.999 1356 0 0 0 0
457	201745730 32544 6426200 6808208 9.437 9.999 1356 22681 24036 31674126 740067849226
458	201778274 29832 6426200 6808208 9.437 9.999 1356 166 208 239334 42690948
473	201808106 202504 6425618 6808621 9.436 10 10170 0 0 0 0
475	202010610 215936 6425618 6808621 9.436 10 10848 0 0 0 0
484	202226546 253354 6425618 6808621 9.436 10 10170 170484 180653 1785531645 3.1357076860708e+14
485	202479900 213352 6425618 6808621 9.436 10 10170 0 192 906147 151633683
500	202693252 27120 6426230 6808220 9.437 9.999 1356 0 0 0 0
502	202720372 27120 6426230 6808220 9.437 9.999 1356 0 0 0 0
511	202747492 32544 6426230 6808220 9.437 9.999 1356 22681 24036 31674126 740067849226
512	202780036 29832 6426230 6808220 9.437 9.999 1356 166 208 239334 42690948
527	202809868 27120 6425345 6808163 9.436 9.999 1356 0 0 0 0
529	202836988 27120 6425345 6808163 9.436 9.999 1356 0 0 0 0
538	202864108 32544 6425345 6808163 9.436 9.999 1356 22681 24036 31674126 740067849226
539	202896652 29154 6425345 6808163 9.436 9.999 1356 61 166 137973 16176741
554	202925806 27120 6426233 6808232 9.437 9.999 1356 0 0 0 0
556	202952926 27120 6426233 6808232 9.437 9.999 1356 0 0 0 0
565	202980046 32544 6426233 6808232 9.437 9.999 1356 22681 24036 31674126 740067849226
566	203012590 29832 6426233 6808232 9.437 9.999 1356 166 208 239334 42690948
581	203042422 27120 6425348 6808175 9.436 9.999 1356 0 0 0 0
583	203069542 27120 6425348 6808175 9.436 9.999 1356 0 0 0 0
592	203096662 32544 6425348 6808175 9.436 9.999 1356 22681 24036 31674126 740067849226
593	203129206 29493 6425348 6808175 9.436 9.999 1356 61 166 167466 23402526
608	203158699 27120 6425444 6808202 9.436 9.999 1356 0 0 0 0
610	203185819 27120 6425444 6808202 9.436 9.999 1356 0 0 0 0
619	203212939 32544 6425444 6808202 9.436 9.999 1356 22681 24036 31674126 740067849226
620	203245483 29493 6425444 6808202 9.436 9.999 1356 72 208 207468 35106840
635	203274976 27120 6426218 6808217 9.437 9.999 1356 0 0 0 0
637	203302096 27120 6426218 6808217 9.437 9.999 1356 0 0 0 0
646	203329216 32544 6426218 6808217 9.437 9.999 1356 22681 24036 31674126 740067849226
647	203361760 29832 6426218 6808217 9.437 9.999 1356 166 208 239334 42690948
