file 11743696 1580764349                                        
version 2
run CAIN-120-20200203-18:11:23-32332
attr configname CAIN
attr datetime 20200203-18:11:23
attr experiment CAIN
attr inifile omnetpp.ini
attr iterationvars "$0=180, $mob=\"./movements/RPGM-0.0.movements\""
attr iterationvars2 "$0=180, $mob=\"./movements/RPGM-0.0.movements\", $repetition=0"
attr measurement "$0=180, $mob=\"./movements/RPGM-0.0.movements\""
attr mob "\"./movements/RPGM-0.0.movements\""
attr network lte.simulations.networks.CAIN
attr processid 32332
attr repetition 0
attr replication #0
attr resultdir results
attr runnumber 120
attr seedset 0
param **.**.amcMode "\"AUTO\""
param **.amcMode "\"D2D\""
param **.cainNetwork true
param **.channelControl.alpha 1.0
param **.channelControl.carrierFrequency 2100e+6Hz
param **.channelControl.pMax 10W
param **.d2dCqi 7
param **.deployer.numRbDl 50
param **.deployer.numRbUl 50
param **.distThresh "${170..190 step 10}"
param **.fbDelay 1
param **.feedbackComputation "xmldoc(\"config_channel.xml\")"
param **.mobility.constraintAreaMaxX 1000m
param **.mobility.constraintAreaMaxY 1000m
param **.mobility.constraintAreaMaxZ 0m
param **.mobility.constraintAreaMinX 0m
param **.mobility.constraintAreaMinY 0m
param **.mobility.constraintAreaMinZ 0m
param **.nic.phy.channelModel "xmldoc(\"config_channel.xml\")"
param **.numBands 50
param **.pwrThresh -10
param **.qtdThresh 3
param **.rbAllocationType "\"localized\""
param **.routingRecorder.enabled false
param **.tcpApp[*].tClose -1s
param **.ueD2DTx[*].mobility.changeAngleBy "normal(0deg, 30deg)"
param **.ueD2DTx[*].mobility.changeInterval "normal(5s, 0.1s)"
param **.ueD2DTx[*].mobility.nodeId -1
param **.ueD2DTx[*].mobility.speed "normal(2mps, 0.01mps)"
param **.ueD2DTx[*].mobility.traceFile "${mob=\"./movements/RWP-0.0.movements\",\"./movements/RWP-0.5.movements\",\"./movements/RPGM-0.0.movements\",\"./movements/RPGM-0.5.movements\",\"./movements/RWPRPGM-0.0.movements\",\"./movements/RWPRPGM-0.5.movements\"}"
param **.ueD2DTx[*].mobilityType "\"BonnMotionMobility\""
param **.usePreconfiguredTxParams false
param *.eNodeB.d2dCapable false
param *.eNodeB.mobility.initFromDisplayString false
param *.eNodeB.mobility.initialX 300m
param *.eNodeB.mobility.initialY 300m
param *.eNodeB.nic.phy.enableD2DCqiReporting true
param *.eNodeB.txPower 19952.62315mw
param *.numUeCell 0
param *.numUeD2DRx 1
param *.numUeD2DTx 1
param *.ue*.macCellId 1
param *.ue*.masterId 1
param *.ue*.mobility.initFromDisplayString false
param *.ue*[0].macCellId 1
param *.ue*[0].masterId 1
param *.ue*[0].mobility.initFromDisplayString false
param *.ueD2D*.numTcpApps 1
param *.ueD2D*[*].d2dCapable true
param *.ueD2D*[0].d2dCapable false
param *.ueD2D*[0].numTcpApps 1
param *.ueD2DRx[0].mobility.initialX 310m
param *.ueD2DRx[0].mobility.initialY 350m
param *.ueD2DRx[0].tcpApp[*].localPort 1000
param *.ueD2DRx[0].tcpApp[*].typename "\"TCPSinkApp\""
param *.ueD2DTx*.tcpApp[*].connectAddress "\"ueD2DTx[0]\""
param *.ueD2DTx*.tcpApp[*].localAddress "\"ueD2DTx\""
param *.ueD2DTx*.tcpApp[*].localPort 1000
param *.ueD2DTx*.tcpApp[*].sendBytes 1GiB
param *.ueD2DTx*.tcpApp[*].typename "\"TCPSessionApp\""
param *.ueD2DTx*.tcpApp[0].active true
param *.ueD2DTx*.tcpApp[0].connectPort 1000
param *.ueD2DTx*.tcpApp[0].tOpen uniform(0.010s,0.1s)
param *.ueD2DTx*.tcpApp[0].tSend uniform(0.15s,0.5s)
param *.ueD2DTx[0].mobility.initialX 290m
param *.ueD2DTx[0].mobility.initialY 350m
param *.ueD2DTx[0].nic.d2dPeerAddresses "\"ueD2DTx[1]\""
param *.ueD2DTx[0].tcpApp[*].localPort 1000
param *.ueD2DTx[0].tcpApp[*].sendBytes 1GiB
param *.ueD2DTx[0].tcpApp[*].typename "\"TCPSessionApp\""
param *.ueD2DTx[0].tcpApp[0].active true
param *.ueD2DTx[0].tcpApp[0].connectAddress "\"ueD2DRx[0]\""
param *.ueD2DTx[0].tcpApp[0].connectPort 1000
param *.ueD2DTx[0].tcpApp[0].localAddress "\"ueD2DTx[0]\""
param *.ueD2DTx[0].tcpApp[0].tOpen uniform(0.010s,0.1s)
param *.ueD2DTx[0].tcpApp[0].tSend uniform(0.15s,0.5s)
param *.ueD2DTx[1].nic.d2dPeerAddresses "\"ueD2DTx[0]\""

vector 8  CAIN.server.ppp[0].queue  queueLength:vector  ETV
attr interpolationmode  sample-hold
attr title  "queue length, vector"
vector 9  CAIN.server.ppp[0].ppp  txState:vector  ETV
attr interpolationmode  sample-hold
attr title  "tx state, vector"
vector 24  CAIN.router.ppp[0].queue  queueLength:vector  ETV
attr interpolationmode  sample-hold
attr title  "queue length, vector"
vector 25  CAIN.router.ppp[0].ppp  txState:vector  ETV
attr interpolationmode  sample-hold
attr title  "tx state, vector"
vector 35  CAIN.router.ppp[1].queue  queueLength:vector  ETV
attr interpolationmode  sample-hold
attr title  "queue length, vector"
vector 36  CAIN.router.ppp[1].ppp  txState:vector  ETV
attr interpolationmode  sample-hold
attr title  "tx state, vector"
vector 56  CAIN.pgw.ppp[0].queue  queueLength:vector  ETV
attr interpolationmode  sample-hold
attr title  "queue length, vector"
vector 57  CAIN.pgw.ppp[0].ppp  txState:vector  ETV
attr interpolationmode  sample-hold
attr title  "tx state, vector"
vector 67  CAIN.pgw.pppInterface.queue  queueLength:vector  ETV
attr interpolationmode  sample-hold
attr title  "queue length, vector"
vector 68  CAIN.pgw.pppInterface.ppp  txState:vector  ETV
attr interpolationmode  sample-hold
attr title  "tx state, vector"
vector 104  CAIN.eNodeB.pppIf.queue  queueLength:vector  ETV
attr interpolationmode  sample-hold
attr title  "queue length, vector"
vector 105  CAIN.eNodeB.pppIf.ppp  txState:vector  ETV
attr interpolationmode  sample-hold
attr title  "tx state, vector"
vector 138  CAIN.ueD2DTx[0].nic.phy  servingCell:vector  ETV
attr source  servingCell
attr title  "ID of the serving eNodeB for the UE, vector"
attr unit  ""
vector 165  CAIN.ueD2DTx[1].nic.phy  servingCell:vector  ETV
attr source  servingCell
attr title  "ID of the serving eNodeB for the UE, vector"
attr unit  ""
vector 192  CAIN.ueD2DTx[2].nic.phy  servingCell:vector  ETV
attr source  servingCell
attr title  "ID of the serving eNodeB for the UE, vector"
attr unit  ""
vector 219  CAIN.ueD2DTx[3].nic.phy  servingCell:vector  ETV
attr source  servingCell
attr title  "ID of the serving eNodeB for the UE, vector"
attr unit  ""
vector 246  CAIN.ueD2DTx[4].nic.phy  servingCell:vector  ETV
attr source  servingCell
attr title  "ID of the serving eNodeB for the UE, vector"
attr unit  ""
vector 85  CAIN.eNodeB.nic.mac  receivedPacketFromLowerLayer:vector(packetBytes)  ETV
attr interpolationmode  none
attr source  receivedPacketFromLowerLayer
vector 264  CAIN.ueD2DTx[4].tcp  tcpRcvQueueBytes  ETV
vector 251  CAIN.ueD2DTx[4].tcp  "advertised window"  ETV
vector 250  CAIN.ueD2DTx[4].tcp  "receive window"  ETV
vector 253  CAIN.ueD2DTx[4].tcp  "sent ack"  ETV
vector 225  CAIN.ueD2DTx[4].nic.pdcpRrc  receivedPacketFromUpperLayer:vector(packetBytes)  ETV
attr interpolationmode  none
attr source  receivedPacketFromUpperLayer
vector 228  CAIN.ueD2DTx[4].nic.pdcpRrc  sentPacketToLowerLayer:vector(packetBytes)  ETV
attr interpolationmode  none
attr source  sentPacketToLowerLayer
vector 229  CAIN.ueD2DTx[4].nic.mac  receivedPacketFromUpperLayer:vector(packetBytes)  ETV
attr interpolationmode  none
attr source  receivedPacketFromUpperLayer
vector 232  CAIN.ueD2DTx[4].nic.mac  sentPacketToLowerLayer:vector(packetBytes)  ETV
attr interpolationmode  none
attr source  sentPacketToLowerLayer
vector 96  CAIN.eNodeB.nic.mac  racpkt:vector  ETV
attr interpolationmode  none
attr title  "eNB received racpkt message, vector"
vector 97  CAIN.eNodeB.nic.mac  racDistanceSignal:vector  ETV
attr interpolationmode  none
attr title  "Rac distance to enb, vector"
vector 87  CAIN.eNodeB.nic.mac  sentPacketToLowerLayer:vector(packetBytes)  ETV
attr interpolationmode  none
attr source  sentPacketToLowerLayer
vector 149  CAIN.ueD2DTx[1].nic.mac  receivedPacketFromLowerLayer:vector(packetBytes)  ETV
attr interpolationmode  none
attr source  receivedPacketFromLowerLayer
vector 160  CAIN.ueD2DTx[1].nic.mac  racpkt:vector  ETV
attr interpolationmode  none
attr title  "eNB received racpkt message, vector"
vector 161  CAIN.ueD2DTx[1].nic.mac  racDistanceSignal:vector  ETV
attr interpolationmode  none
attr title  "Rac distance to enb, vector"
vector 151  CAIN.ueD2DTx[1].nic.mac  sentPacketToLowerLayer:vector(packetBytes)  ETV
attr interpolationmode  none
attr source  sentPacketToLowerLayer
vector 203  CAIN.ueD2DTx[3].nic.mac  receivedPacketFromLowerLayer:vector(packetBytes)  ETV
attr interpolationmode  none
attr source  receivedPacketFromLowerLayer
vector 214  CAIN.ueD2DTx[3].nic.mac  racpkt:vector  ETV
attr interpolationmode  none
attr title  "eNB received racpkt message, vector"
vector 215  CAIN.ueD2DTx[3].nic.mac  racDistanceSignal:vector  ETV
attr interpolationmode  none
attr title  "Rac distance to enb, vector"
vector 205  CAIN.ueD2DTx[3].nic.mac  sentPacketToLowerLayer:vector(packetBytes)  ETV
attr interpolationmode  none
attr source  sentPacketToLowerLayer
vector 230  CAIN.ueD2DTx[4].nic.mac  receivedPacketFromLowerLayer:vector(packetBytes)  ETV
attr interpolationmode  none
attr source  receivedPacketFromLowerLayer
vector 122  CAIN.ueD2DTx[0].nic.mac  receivedPacketFromLowerLayer:vector(packetBytes)  ETV
attr interpolationmode  none
attr source  receivedPacketFromLowerLayer
vector 133  CAIN.ueD2DTx[0].nic.mac  racpkt:vector  ETV
attr interpolationmode  none
attr title  "eNB received racpkt message, vector"
vector 134  CAIN.ueD2DTx[0].nic.mac  racDistanceSignal:vector  ETV
attr interpolationmode  none
attr title  "Rac distance to enb, vector"
vector 124  CAIN.ueD2DTx[0].nic.mac  sentPacketToLowerLayer:vector(packetBytes)  ETV
attr interpolationmode  none
attr source  sentPacketToLowerLayer
vector 241  CAIN.ueD2DTx[4].nic.mac  racpkt:vector  ETV
attr interpolationmode  none
attr title  "eNB received racpkt message, vector"
vector 242  CAIN.ueD2DTx[4].nic.mac  racDistanceSignal:vector  ETV
attr interpolationmode  none
attr title  "Rac distance to enb, vector"
vector 231  CAIN.ueD2DTx[4].nic.mac  sentPacketToUpperLayer:vector(packetBytes)  ETV
attr interpolationmode  none
attr source  sentPacketToUpperLayer
vector 176  CAIN.ueD2DTx[2].nic.mac  receivedPacketFromLowerLayer:vector(packetBytes)  ETV
attr interpolationmode  none
attr source  receivedPacketFromLowerLayer
vector 187  CAIN.ueD2DTx[2].nic.mac  racpkt:vector  ETV
attr interpolationmode  none
attr title  "eNB received racpkt message, vector"
vector 188  CAIN.ueD2DTx[2].nic.mac  racDistanceSignal:vector  ETV
attr interpolationmode  none
attr title  "Rac distance to enb, vector"
vector 178  CAIN.ueD2DTx[2].nic.mac  sentPacketToLowerLayer:vector(packetBytes)  ETV
attr interpolationmode  none
attr source  sentPacketToLowerLayer
vector 99  CAIN.eNodeB.nic.phy  averageCqiUlvect:vector  ETV
attr source  averageCqiUlvect
attr title  "Average Cqi reported in UL, vector"
attr unit  cqi
vector 93  CAIN.eNodeB.nic.mac  ServedDevs:vector  ETV
attr interpolationmode  none
attr title  "# of devices served on cain forwarding, vector"
vector 91  CAIN.eNodeB.nic.mac  DistanceSignal:vector  ETV
attr interpolationmode  none
attr title  "Distance to enb, vector"
vector 89  CAIN.eNodeB.nic.mac  CainMessage:vector  ETV
attr interpolationmode  none
attr title  "eNB received CAIN message, vector"
vector 92  CAIN.eNodeB.nic.mac  HopDistanceSignal:vector  ETV
attr interpolationmode  none
attr title  "Distance to enb with hop forwarding, vector"
vector 90  CAIN.eNodeB.nic.mac  CainHopMessage:vector  ETV
attr interpolationmode  none
attr title  "eNB received CAIN hop message, vector"
vector 86  CAIN.eNodeB.nic.mac  sentPacketToUpperLayer:vector(packetBytes)  ETV
attr interpolationmode  none
attr source  sentPacketToUpperLayer
vector 81  CAIN.eNodeB.nic.pdcpRrc  receivedPacketFromLowerLayer:vector(packetBytes)  ETV
attr interpolationmode  none
attr source  receivedPacketFromLowerLayer
vector 82  CAIN.eNodeB.nic.pdcpRrc  sentPacketToUpperLayer:vector(packetBytes)  ETV
attr interpolationmode  none
attr source  sentPacketToUpperLayer
vector 80  CAIN.eNodeB.nic.pdcpRrc  receivedPacketFromUpperLayer:vector(packetBytes)  ETV
attr interpolationmode  none
attr source  receivedPacketFromUpperLayer
vector 83  CAIN.eNodeB.nic.pdcpRrc  sentPacketToLowerLayer:vector(packetBytes)  ETV
attr interpolationmode  none
attr source  sentPacketToLowerLayer
vector 84  CAIN.eNodeB.nic.mac  receivedPacketFromUpperLayer:vector(packetBytes)  ETV
attr interpolationmode  none
attr source  receivedPacketFromUpperLayer
vector 88  CAIN.eNodeB.nic.mac  measuredItbs:vector  ETV
attr source  measuredItbs
attr title  "TBS index, vector"
attr unit  ""
vector 135  CAIN.ueD2DTx[0].nic.phy  averageCqiDlvect:vector  ETV
attr source  averageCqiDlvect
attr title  "Average Cqi reported in DL, vector"
attr unit  cqi
vector 123  CAIN.ueD2DTx[0].nic.mac  sentPacketToUpperLayer:vector(packetBytes)  ETV
attr interpolationmode  none
attr source  sentPacketToUpperLayer
vector 118  CAIN.ueD2DTx[0].nic.pdcpRrc  receivedPacketFromLowerLayer:vector(packetBytes)  ETV
attr interpolationmode  none
attr source  receivedPacketFromLowerLayer
vector 119  CAIN.ueD2DTx[0].nic.pdcpRrc  sentPacketToUpperLayer:vector(packetBytes)  ETV
attr interpolationmode  none
attr source  sentPacketToUpperLayer
vector 288  CAIN.ueD2DTx[0].tcp  tcpRcvQueueBytes  ETV
vector 275  CAIN.ueD2DTx[0].tcp  "advertised window"  ETV
vector 274  CAIN.ueD2DTx[0].tcp  "receive window"  ETV
vector 277  CAIN.ueD2DTx[0].tcp  "sent ack"  ETV
vector 117  CAIN.ueD2DTx[0].nic.pdcpRrc  receivedPacketFromUpperLayer:vector(packetBytes)  ETV
attr interpolationmode  none
attr source  receivedPacketFromUpperLayer
vector 120  CAIN.ueD2DTx[0].nic.pdcpRrc  sentPacketToLowerLayer:vector(packetBytes)  ETV
attr interpolationmode  none
attr source  sentPacketToLowerLayer
vector 121  CAIN.ueD2DTx[0].nic.mac  receivedPacketFromUpperLayer:vector(packetBytes)  ETV
attr interpolationmode  none
attr source  receivedPacketFromUpperLayer
vector 312  CAIN.ueD2DTx[2].tcp  tcpRcvQueueBytes  ETV
vector 299  CAIN.ueD2DTx[2].tcp  "advertised window"  ETV
vector 298  CAIN.ueD2DTx[2].tcp  "receive window"  ETV
vector 301  CAIN.ueD2DTx[2].tcp  "sent ack"  ETV
vector 171  CAIN.ueD2DTx[2].nic.pdcpRrc  receivedPacketFromUpperLayer:vector(packetBytes)  ETV
attr interpolationmode  none
attr source  receivedPacketFromUpperLayer
vector 174  CAIN.ueD2DTx[2].nic.pdcpRrc  sentPacketToLowerLayer:vector(packetBytes)  ETV
attr interpolationmode  none
attr source  sentPacketToLowerLayer
vector 175  CAIN.ueD2DTx[2].nic.mac  receivedPacketFromUpperLayer:vector(packetBytes)  ETV
attr interpolationmode  none
attr source  receivedPacketFromUpperLayer
vector 177  CAIN.ueD2DTx[2].nic.mac  sentPacketToUpperLayer:vector(packetBytes)  ETV
attr interpolationmode  none
attr source  sentPacketToUpperLayer
vector 336  CAIN.ueD2DTx[3].tcp  tcpRcvQueueBytes  ETV
vector 323  CAIN.ueD2DTx[3].tcp  "advertised window"  ETV
vector 322  CAIN.ueD2DTx[3].tcp  "receive window"  ETV
vector 325  CAIN.ueD2DTx[3].tcp  "sent ack"  ETV
vector 198  CAIN.ueD2DTx[3].nic.pdcpRrc  receivedPacketFromUpperLayer:vector(packetBytes)  ETV
attr interpolationmode  none
attr source  receivedPacketFromUpperLayer
vector 201  CAIN.ueD2DTx[3].nic.pdcpRrc  sentPacketToLowerLayer:vector(packetBytes)  ETV
attr interpolationmode  none
attr source  sentPacketToLowerLayer
vector 202  CAIN.ueD2DTx[3].nic.mac  receivedPacketFromUpperLayer:vector(packetBytes)  ETV
attr interpolationmode  none
attr source  receivedPacketFromUpperLayer
vector 360  CAIN.ueD2DTx[1].tcp  tcpRcvQueueBytes  ETV
vector 347  CAIN.ueD2DTx[1].tcp  "advertised window"  ETV
vector 346  CAIN.ueD2DTx[1].tcp  "receive window"  ETV
vector 349  CAIN.ueD2DTx[1].tcp  "sent ack"  ETV
vector 144  CAIN.ueD2DTx[1].nic.pdcpRrc  receivedPacketFromUpperLayer:vector(packetBytes)  ETV
attr interpolationmode  none
attr source  receivedPacketFromUpperLayer
vector 147  CAIN.ueD2DTx[1].nic.pdcpRrc  sentPacketToLowerLayer:vector(packetBytes)  ETV
attr interpolationmode  none
attr source  sentPacketToLowerLayer
vector 148  CAIN.ueD2DTx[1].nic.mac  receivedPacketFromUpperLayer:vector(packetBytes)  ETV
attr interpolationmode  none
attr source  receivedPacketFromUpperLayer
vector 204  CAIN.ueD2DTx[3].nic.mac  sentPacketToUpperLayer:vector(packetBytes)  ETV
attr interpolationmode  none
attr source  sentPacketToUpperLayer
vector 243  CAIN.ueD2DTx[4].nic.phy  averageCqiDlvect:vector  ETV
attr source  averageCqiDlvect
attr title  "Average Cqi reported in DL, vector"
attr unit  cqi
vector 226  CAIN.ueD2DTx[4].nic.pdcpRrc  receivedPacketFromLowerLayer:vector(packetBytes)  ETV
attr interpolationmode  none
attr source  receivedPacketFromLowerLayer
vector 227  CAIN.ueD2DTx[4].nic.pdcpRrc  sentPacketToUpperLayer:vector(packetBytes)  ETV
attr interpolationmode  none
attr source  sentPacketToUpperLayer
8	16727 8 0 0 0 0 1 0 0 0 0
9	16735 8 0 0 0 0 1 0 0 0 0
24	16743 9 0 0 0 0 1 0 0 0 0
25	16752 9 0 0 0 0 1 0 0 0 0
35	16761 9 0 0 0 0 1 0 0 0 0
36	16770 9 0 0 0 0 1 0 0 0 0
56	16779 9 0 0 0 0 1 0 0 0 0
57	16788 9 0 0 0 0 1 0 0 0 0
67	16797 9 0 0 0 0 1 0 0 0 0
68	16806 9 0 0 0 0 1 0 0 0 0
80	16815 163 408 467364 0.024 9.102 9 44 44 396 17424
81	16978 163 403 467359 0.024 9.102 9 45 45 405 18225
82	17141 163 403 467359 0.024 9.102 9 44 44 396 17424
83	17304 163 408 467364 0.024 9.102 9 45 45 405 18225
84	17467 327 411 467422 0.024 9.103 18 45 47 828 38106
85	17794 635405 60 513635 0.002 10 36211 0 0 0 0
86	653199 318 399 467418 0.024 9.103 18 0 47 423 19881
87	653517 494678 224 513585 0.017 10 27874 0 0 0 0
88	1148195 164 423 467418 0.025 9.103 9 26 26 234 6084
89	1148359 502414 351 513635 0.021 10 23876 1 23876 285043626 4537229424126
90	1650773 330846 387 513635 0.023 10 15899 1 15899 126397050 1339766597650
91	1981619 151642 351 513627 0.021 10 7977 93 424 1205712 209587824
92	2133261 306177 387 513635 0.023 10 15899 93 265 3302844 764557392
93	2439438 139660 351 513627 0.021 10 7977 1 3 23893 71605
96	2579098 417602 224 513635 0.017 10 19881 1 19881 197637021 2619546955341
97	2996700 380998 224 513635 0.017 10 19881 93 265 3231337 589236593
99	3377698 163 342 467185 0.021 9.099 9 14 15 132 1938
104	3377861 10 0 0 0 0 1 0 0 0 0
105	3377871 10 0 0 0 0 1 0 0 0 0
117	3377881 84 626 464042 0.042121352858 9.042121352858 3 44 44 132 5808
118	3377965 115 475 464857 0.029 9.056 6 45 45 270 12150
119	3378080 115 475 464857 0.029 9.056 6 44 44 264 11616
120	3378195 84 626 464042 0.042121352858 9.042121352858 3 45 45 135 6075
121	3378279 84 629 464045 0.042121352858 9.042121352858 3 45 45 135 6075
122	3378363 483993 277 513616 0.019 10 25880 0 0 0 0
123	3862356 115 471 464853 0.029 9.056 6 47 47 282 13254
124	3862471 484011 277 513616 0.019 10 25881 0 0 0 0
133	4346482 530912 277 513616 0.019 10 23883 1 23883 285210786 4541221204954
134	4877394 486290 277 513616 0.019 10 23883 93 265 4290891 869980203
135	5363684 115 454 464709 0.026 9.053 6 15 15 90 1350
138	5363799 10 0 0 0 0 1 1 1 1 1
144	5363809 85 2361 466879 0.094045599147 9.094045599147 3 44 44 132 5808
147	5363894 85 2361 466879 0.094045599147 9.094045599147 3 45 45 135 6075
148	5363979 85 2364 466882 0.094045599147 9.094045599147 3 45 45 135 6075
149	5364064 482543 245 513601 0.018 10 25862 0 0 0 0
151	5846607 481451 245 513601 0.018 10 25863 0 0 0 0
160	6328058 529730 245 513601 0.018 10 23881 1 23881 285163021 4540080457341
161	6857788 469188 245 513601 0.018 10 23881 0 208 2483104 516485632
165	7326976 10 0 0 0 0 1 1 1 1 1
171	7326986 84 634 464049 0.042969444403 9.042969444403 3 44 44 132 5808
174	7327070 84 634 464049 0.042969444403 9.042969444403 3 45 45 135 6075
175	7327154 141 637 464312 0.042969444403 9.047 6 45 47 276 12702
176	7327295 149748 321 513568 0.02 9.999 7971 0 0 0 0
177	7477043 54 780 464308 0.047 9.047 3 0 0 0 0
178	7477097 149747 321 513568 0.02 9.999 7971 0 0 0 0
187	7626844 172427 321 513568 0.02 9.999 7965 1 7965 31724595 168468174315
188	7799271 161585 321 513568 0.02 9.999 7965 93 208 1198560 206691600
192	7960856 10 0 0 0 0 1 1 1 1 1
198	7960866 85 2325 466825 0.093352724272 9.093352724272 3 44 44 132 5808
201	7960951 85 2325 466825 0.093352724272 9.093352724272 3 45 45 135 6075
202	7961036 143 2328 467100 0.093352724272 9.098 6 45 47 276 12702
203	7961179 444931 254 513610 0.018 10 23860 0 0 0 0
204	8406110 55 2542 467096 0.098 9.098 3 0 0 0 0
205	8406165 445038 254 513610 0.018 10 23866 0 0 0 0
214	8851203 529131 254 513610 0.018 10 23854 1 23854 284518585 4524699057255
215	9380334 456765 254 513610 0.018 10 23854 0 265 1111464 103854912
219	9837099 10 0 0 0 0 1 1 1 1 1
225	9837109 84 204 462505 0.015271066679 9.015271066679 3 44 44 132 5808
226	9837193 58 3059 467613 0.107 9.107 3 45 45 135 6075
227	9837251 58 3059 467613 0.107 9.107 3 44 44 132 5808
228	9837309 84 204 462505 0.015271066679 9.015271066679 3 45 45 135 6075
229	9837393 138 207 462768 0.015271066679 9.02 6 45 47 276 12702
230	9837531 446102 275 513624 0.019 10 23862 0 0 0 0
231	10283633 109 299 467609 0.02 9.107 6 0 47 141 6627
232	10283742 446206 213 513624 0.016 10 23868 0 0 0 0
241	10729948 530245 286 513624 0.019 10 23853 1 23853 284494731 4524130043939
242	11260193 481717 286 513624 0.019 10 23853 0 265 3816582 726495126
243	11741910 58 2935 467489 0.104 9.104 3 15 15 45 675
246	11741968 10 0 0 0 0 1 1 1 1 1
250	11741978 90 201 462502 0.015271066679 9.015271066679 3 7504 7504 22512 168930048
251	11742068 90 201 462502 0.015271066679 9.015271066679 3 7504 7504 22512 168930048
253	11742158 81 201 462502 0.015271066679 9.015271066679 3 0 0 0 0
264	11742239 81 201 462502 0.015271066679 9.015271066679 3 0 0 0 0
274	11742320 90 623 464039 0.042121352858 9.042121352858 3 7504 7504 22512 168930048
275	11742410 90 623 464039 0.042121352858 9.042121352858 3 7504 7504 22512 168930048
277	11742500 81 623 464039 0.042121352858 9.042121352858 3 0 0 0 0
288	11742581 81 623 464039 0.042121352858 9.042121352858 3 0 0 0 0
298	11742662 90 631 464046 0.042969444403 9.042969444403 3 7504 7504 22512 168930048
299	11742752 90 631 464046 0.042969444403 9.042969444403 3 7504 7504 22512 168930048
301	11742842 81 631 464046 0.042969444403 9.042969444403 3 0 0 0 0
312	11742923 81 631 464046 0.042969444403 9.042969444403 3 0 0 0 0
322	11743004 91 2322 466822 0.093352724272 9.093352724272 3 7504 7504 22512 168930048
323	11743095 91 2322 466822 0.093352724272 9.093352724272 3 7504 7504 22512 168930048
325	11743186 82 2322 466822 0.093352724272 9.093352724272 3 0 0 0 0
336	11743268 82 2322 466822 0.093352724272 9.093352724272 3 0 0 0 0
346	11743350 91 2358 466876 0.094045599147 9.094045599147 3 7504 7504 22512 168930048
347	11743441 91 2358 466876 0.094045599147 9.094045599147 3 7504 7504 22512 168930048
349	11743532 82 2358 466876 0.094045599147 9.094045599147 3 0 0 0 0
360	11743614 82 2358 466876 0.094045599147 9.094045599147 3 0 0 0 0
