file 3706507 1580764458                                         
version 2
run CAIN-129-20200203-18:13:18-32395
attr configname CAIN
attr datetime 20200203-18:13:18
attr experiment CAIN
attr inifile omnetpp.ini
attr iterationvars "$0=180, $mob=\"./movements/RPGM-0.0.movements\""
attr iterationvars2 "$0=180, $mob=\"./movements/RPGM-0.0.movements\", $repetition=9"
attr measurement "$0=180, $mob=\"./movements/RPGM-0.0.movements\""
attr mob "\"./movements/RPGM-0.0.movements\""
attr network lte.simulations.networks.CAIN
attr processid 32395
attr repetition 9
attr replication #9
attr resultdir results
attr runnumber 129
attr seedset 9
param **.**.amcMode "\"AUTO\""
param **.amcMode "\"D2D\""
param **.cainNetwork true
param **.channelControl.alpha 1.0
param **.channelControl.carrierFrequency 2100e+6Hz
param **.channelControl.pMax 10W
param **.d2dCqi 7
param **.deployer.numRbDl 50
param **.deployer.numRbUl 50
param **.distThresh "${170..190 step 10}"
param **.fbDelay 1
param **.feedbackComputation "xmldoc(\"config_channel.xml\")"
param **.mobility.constraintAreaMaxX 1000m
param **.mobility.constraintAreaMaxY 1000m
param **.mobility.constraintAreaMaxZ 0m
param **.mobility.constraintAreaMinX 0m
param **.mobility.constraintAreaMinY 0m
param **.mobility.constraintAreaMinZ 0m
param **.nic.phy.channelModel "xmldoc(\"config_channel.xml\")"
param **.numBands 50
param **.pwrThresh -10
param **.qtdThresh 3
param **.rbAllocationType "\"localized\""
param **.routingRecorder.enabled false
param **.tcpApp[*].tClose -1s
param **.ueD2DTx[*].mobility.changeAngleBy "normal(0deg, 30deg)"
param **.ueD2DTx[*].mobility.changeInterval "normal(5s, 0.1s)"
param **.ueD2DTx[*].mobility.nodeId -1
param **.ueD2DTx[*].mobility.speed "normal(2mps, 0.01mps)"
param **.ueD2DTx[*].mobility.traceFile "${mob=\"./movements/RWP-0.0.movements\",\"./movements/RWP-0.5.movements\",\"./movements/RPGM-0.0.movements\",\"./movements/RPGM-0.5.movements\",\"./movements/RWPRPGM-0.0.movements\",\"./movements/RWPRPGM-0.5.movements\"}"
param **.ueD2DTx[*].mobilityType "\"BonnMotionMobility\""
param **.usePreconfiguredTxParams false
param *.eNodeB.d2dCapable false
param *.eNodeB.mobility.initFromDisplayString false
param *.eNodeB.mobility.initialX 300m
param *.eNodeB.mobility.initialY 300m
param *.eNodeB.nic.phy.enableD2DCqiReporting true
param *.eNodeB.txPower 19952.62315mw
param *.numUeCell 0
param *.numUeD2DRx 1
param *.numUeD2DTx 1
param *.ue*.macCellId 1
param *.ue*.masterId 1
param *.ue*.mobility.initFromDisplayString false
param *.ue*[0].macCellId 1
param *.ue*[0].masterId 1
param *.ue*[0].mobility.initFromDisplayString false
param *.ueD2D*.numTcpApps 1
param *.ueD2D*[*].d2dCapable true
param *.ueD2D*[0].d2dCapable false
param *.ueD2D*[0].numTcpApps 1
param *.ueD2DRx[0].mobility.initialX 310m
param *.ueD2DRx[0].mobility.initialY 350m
param *.ueD2DRx[0].tcpApp[*].localPort 1000
param *.ueD2DRx[0].tcpApp[*].typename "\"TCPSinkApp\""
param *.ueD2DTx*.tcpApp[*].connectAddress "\"ueD2DTx[0]\""
param *.ueD2DTx*.tcpApp[*].localAddress "\"ueD2DTx\""
param *.ueD2DTx*.tcpApp[*].localPort 1000
param *.ueD2DTx*.tcpApp[*].sendBytes 1GiB
param *.ueD2DTx*.tcpApp[*].typename "\"TCPSessionApp\""
param *.ueD2DTx*.tcpApp[0].active true
param *.ueD2DTx*.tcpApp[0].connectPort 1000
param *.ueD2DTx*.tcpApp[0].tOpen uniform(0.010s,0.1s)
param *.ueD2DTx*.tcpApp[0].tSend uniform(0.15s,0.5s)
param *.ueD2DTx[0].mobility.initialX 290m
param *.ueD2DTx[0].mobility.initialY 350m
param *.ueD2DTx[0].nic.d2dPeerAddresses "\"ueD2DTx[1]\""
param *.ueD2DTx[0].tcpApp[*].localPort 1000
param *.ueD2DTx[0].tcpApp[*].sendBytes 1GiB
param *.ueD2DTx[0].tcpApp[*].typename "\"TCPSessionApp\""
param *.ueD2DTx[0].tcpApp[0].active true
param *.ueD2DTx[0].tcpApp[0].connectAddress "\"ueD2DRx[0]\""
param *.ueD2DTx[0].tcpApp[0].connectPort 1000
param *.ueD2DTx[0].tcpApp[0].localAddress "\"ueD2DTx[0]\""
param *.ueD2DTx[0].tcpApp[0].tOpen uniform(0.010s,0.1s)
param *.ueD2DTx[0].tcpApp[0].tSend uniform(0.15s,0.5s)
param *.ueD2DTx[1].nic.d2dPeerAddresses "\"ueD2DTx[0]\""

vector 8  CAIN.server.ppp[0].queue  queueLength:vector  ETV
attr interpolationmode  sample-hold
attr title  "queue length, vector"
vector 9  CAIN.server.ppp[0].ppp  txState:vector  ETV
attr interpolationmode  sample-hold
attr title  "tx state, vector"
vector 24  CAIN.router.ppp[0].queue  queueLength:vector  ETV
attr interpolationmode  sample-hold
attr title  "queue length, vector"
vector 25  CAIN.router.ppp[0].ppp  txState:vector  ETV
attr interpolationmode  sample-hold
attr title  "tx state, vector"
vector 35  CAIN.router.ppp[1].queue  queueLength:vector  ETV
attr interpolationmode  sample-hold
attr title  "queue length, vector"
vector 36  CAIN.router.ppp[1].ppp  txState:vector  ETV
attr interpolationmode  sample-hold
attr title  "tx state, vector"
vector 56  CAIN.pgw.ppp[0].queue  queueLength:vector  ETV
attr interpolationmode  sample-hold
attr title  "queue length, vector"
vector 57  CAIN.pgw.ppp[0].ppp  txState:vector  ETV
attr interpolationmode  sample-hold
attr title  "tx state, vector"
vector 67  CAIN.pgw.pppInterface.queue  queueLength:vector  ETV
attr interpolationmode  sample-hold
attr title  "queue length, vector"
vector 68  CAIN.pgw.pppInterface.ppp  txState:vector  ETV
attr interpolationmode  sample-hold
attr title  "tx state, vector"
vector 104  CAIN.eNodeB.pppIf.queue  queueLength:vector  ETV
attr interpolationmode  sample-hold
attr title  "queue length, vector"
vector 105  CAIN.eNodeB.pppIf.ppp  txState:vector  ETV
attr interpolationmode  sample-hold
attr title  "tx state, vector"
vector 138  CAIN.ueD2DTx[0].nic.phy  servingCell:vector  ETV
attr source  servingCell
attr title  "ID of the serving eNodeB for the UE, vector"
attr unit  ""
vector 165  CAIN.ueD2DTx[1].nic.phy  servingCell:vector  ETV
attr source  servingCell
attr title  "ID of the serving eNodeB for the UE, vector"
attr unit  ""
vector 192  CAIN.ueD2DTx[2].nic.phy  servingCell:vector  ETV
attr source  servingCell
attr title  "ID of the serving eNodeB for the UE, vector"
attr unit  ""
vector 219  CAIN.ueD2DTx[3].nic.phy  servingCell:vector  ETV
attr source  servingCell
attr title  "ID of the serving eNodeB for the UE, vector"
attr unit  ""
vector 246  CAIN.ueD2DTx[4].nic.phy  servingCell:vector  ETV
attr source  servingCell
attr title  "ID of the serving eNodeB for the UE, vector"
attr unit  ""
vector 85  CAIN.eNodeB.nic.mac  receivedPacketFromLowerLayer:vector(packetBytes)  ETV
attr interpolationmode  none
attr source  receivedPacketFromLowerLayer
vector 264  CAIN.ueD2DTx[4].tcp  tcpRcvQueueBytes  ETV
vector 251  CAIN.ueD2DTx[4].tcp  "advertised window"  ETV
vector 250  CAIN.ueD2DTx[4].tcp  "receive window"  ETV
vector 253  CAIN.ueD2DTx[4].tcp  "sent ack"  ETV
vector 225  CAIN.ueD2DTx[4].nic.pdcpRrc  receivedPacketFromUpperLayer:vector(packetBytes)  ETV
attr interpolationmode  none
attr source  receivedPacketFromUpperLayer
vector 228  CAIN.ueD2DTx[4].nic.pdcpRrc  sentPacketToLowerLayer:vector(packetBytes)  ETV
attr interpolationmode  none
attr source  sentPacketToLowerLayer
vector 229  CAIN.ueD2DTx[4].nic.mac  receivedPacketFromUpperLayer:vector(packetBytes)  ETV
attr interpolationmode  none
attr source  receivedPacketFromUpperLayer
vector 232  CAIN.ueD2DTx[4].nic.mac  sentPacketToLowerLayer:vector(packetBytes)  ETV
attr interpolationmode  none
attr source  sentPacketToLowerLayer
vector 96  CAIN.eNodeB.nic.mac  racpkt:vector  ETV
attr interpolationmode  none
attr title  "eNB received racpkt message, vector"
vector 97  CAIN.eNodeB.nic.mac  racDistanceSignal:vector  ETV
attr interpolationmode  none
attr title  "Rac distance to enb, vector"
vector 87  CAIN.eNodeB.nic.mac  sentPacketToLowerLayer:vector(packetBytes)  ETV
attr interpolationmode  none
attr source  sentPacketToLowerLayer
vector 288  CAIN.ueD2DTx[0].tcp  tcpRcvQueueBytes  ETV
vector 275  CAIN.ueD2DTx[0].tcp  "advertised window"  ETV
vector 274  CAIN.ueD2DTx[0].tcp  "receive window"  ETV
vector 277  CAIN.ueD2DTx[0].tcp  "sent ack"  ETV
vector 117  CAIN.ueD2DTx[0].nic.pdcpRrc  receivedPacketFromUpperLayer:vector(packetBytes)  ETV
attr interpolationmode  none
attr source  receivedPacketFromUpperLayer
vector 120  CAIN.ueD2DTx[0].nic.pdcpRrc  sentPacketToLowerLayer:vector(packetBytes)  ETV
attr interpolationmode  none
attr source  sentPacketToLowerLayer
vector 121  CAIN.ueD2DTx[0].nic.mac  receivedPacketFromUpperLayer:vector(packetBytes)  ETV
attr interpolationmode  none
attr source  receivedPacketFromUpperLayer
vector 124  CAIN.ueD2DTx[0].nic.mac  sentPacketToLowerLayer:vector(packetBytes)  ETV
attr interpolationmode  none
attr source  sentPacketToLowerLayer
vector 203  CAIN.ueD2DTx[3].nic.mac  receivedPacketFromLowerLayer:vector(packetBytes)  ETV
attr interpolationmode  none
attr source  receivedPacketFromLowerLayer
vector 214  CAIN.ueD2DTx[3].nic.mac  racpkt:vector  ETV
attr interpolationmode  none
attr title  "eNB received racpkt message, vector"
vector 215  CAIN.ueD2DTx[3].nic.mac  racDistanceSignal:vector  ETV
attr interpolationmode  none
attr title  "Rac distance to enb, vector"
vector 205  CAIN.ueD2DTx[3].nic.mac  sentPacketToLowerLayer:vector(packetBytes)  ETV
attr interpolationmode  none
attr source  sentPacketToLowerLayer
vector 230  CAIN.ueD2DTx[4].nic.mac  receivedPacketFromLowerLayer:vector(packetBytes)  ETV
attr interpolationmode  none
attr source  receivedPacketFromLowerLayer
vector 241  CAIN.ueD2DTx[4].nic.mac  racpkt:vector  ETV
attr interpolationmode  none
attr title  "eNB received racpkt message, vector"
vector 242  CAIN.ueD2DTx[4].nic.mac  racDistanceSignal:vector  ETV
attr interpolationmode  none
attr title  "Rac distance to enb, vector"
vector 122  CAIN.ueD2DTx[0].nic.mac  receivedPacketFromLowerLayer:vector(packetBytes)  ETV
attr interpolationmode  none
attr source  receivedPacketFromLowerLayer
vector 133  CAIN.ueD2DTx[0].nic.mac  racpkt:vector  ETV
attr interpolationmode  none
attr title  "eNB received racpkt message, vector"
vector 134  CAIN.ueD2DTx[0].nic.mac  racDistanceSignal:vector  ETV
attr interpolationmode  none
attr title  "Rac distance to enb, vector"
vector 149  CAIN.ueD2DTx[1].nic.mac  receivedPacketFromLowerLayer:vector(packetBytes)  ETV
attr interpolationmode  none
attr source  receivedPacketFromLowerLayer
vector 160  CAIN.ueD2DTx[1].nic.mac  racpkt:vector  ETV
attr interpolationmode  none
attr title  "eNB received racpkt message, vector"
vector 161  CAIN.ueD2DTx[1].nic.mac  racDistanceSignal:vector  ETV
attr interpolationmode  none
attr title  "Rac distance to enb, vector"
vector 151  CAIN.ueD2DTx[1].nic.mac  sentPacketToLowerLayer:vector(packetBytes)  ETV
attr interpolationmode  none
attr source  sentPacketToLowerLayer
vector 176  CAIN.ueD2DTx[2].nic.mac  receivedPacketFromLowerLayer:vector(packetBytes)  ETV
attr interpolationmode  none
attr source  receivedPacketFromLowerLayer
vector 187  CAIN.ueD2DTx[2].nic.mac  racpkt:vector  ETV
attr interpolationmode  none
attr title  "eNB received racpkt message, vector"
vector 188  CAIN.ueD2DTx[2].nic.mac  racDistanceSignal:vector  ETV
attr interpolationmode  none
attr title  "Rac distance to enb, vector"
vector 178  CAIN.ueD2DTx[2].nic.mac  sentPacketToLowerLayer:vector(packetBytes)  ETV
attr interpolationmode  none
attr source  sentPacketToLowerLayer
vector 231  CAIN.ueD2DTx[4].nic.mac  sentPacketToUpperLayer:vector(packetBytes)  ETV
attr interpolationmode  none
attr source  sentPacketToUpperLayer
vector 99  CAIN.eNodeB.nic.phy  averageCqiUlvect:vector  ETV
attr source  averageCqiUlvect
attr title  "Average Cqi reported in UL, vector"
attr unit  cqi
vector 93  CAIN.eNodeB.nic.mac  ServedDevs:vector  ETV
attr interpolationmode  none
attr title  "# of devices served on cain forwarding, vector"
vector 91  CAIN.eNodeB.nic.mac  DistanceSignal:vector  ETV
attr interpolationmode  none
attr title  "Distance to enb, vector"
vector 89  CAIN.eNodeB.nic.mac  CainMessage:vector  ETV
attr interpolationmode  none
attr title  "eNB received CAIN message, vector"
vector 312  CAIN.ueD2DTx[3].tcp  tcpRcvQueueBytes  ETV
vector 299  CAIN.ueD2DTx[3].tcp  "advertised window"  ETV
vector 298  CAIN.ueD2DTx[3].tcp  "receive window"  ETV
vector 301  CAIN.ueD2DTx[3].tcp  "sent ack"  ETV
vector 198  CAIN.ueD2DTx[3].nic.pdcpRrc  receivedPacketFromUpperLayer:vector(packetBytes)  ETV
attr interpolationmode  none
attr source  receivedPacketFromUpperLayer
vector 201  CAIN.ueD2DTx[3].nic.pdcpRrc  sentPacketToLowerLayer:vector(packetBytes)  ETV
attr interpolationmode  none
attr source  sentPacketToLowerLayer
vector 202  CAIN.ueD2DTx[3].nic.mac  receivedPacketFromUpperLayer:vector(packetBytes)  ETV
attr interpolationmode  none
attr source  receivedPacketFromUpperLayer
vector 86  CAIN.eNodeB.nic.mac  sentPacketToUpperLayer:vector(packetBytes)  ETV
attr interpolationmode  none
attr source  sentPacketToUpperLayer
vector 81  CAIN.eNodeB.nic.pdcpRrc  receivedPacketFromLowerLayer:vector(packetBytes)  ETV
attr interpolationmode  none
attr source  receivedPacketFromLowerLayer
vector 82  CAIN.eNodeB.nic.pdcpRrc  sentPacketToUpperLayer:vector(packetBytes)  ETV
attr interpolationmode  none
attr source  sentPacketToUpperLayer
vector 80  CAIN.eNodeB.nic.pdcpRrc  receivedPacketFromUpperLayer:vector(packetBytes)  ETV
attr interpolationmode  none
attr source  receivedPacketFromUpperLayer
vector 83  CAIN.eNodeB.nic.pdcpRrc  sentPacketToLowerLayer:vector(packetBytes)  ETV
attr interpolationmode  none
attr source  sentPacketToLowerLayer
vector 84  CAIN.eNodeB.nic.mac  receivedPacketFromUpperLayer:vector(packetBytes)  ETV
attr interpolationmode  none
attr source  receivedPacketFromUpperLayer
vector 88  CAIN.eNodeB.nic.mac  measuredItbs:vector  ETV
attr source  measuredItbs
attr title  "TBS index, vector"
attr unit  ""
vector 135  CAIN.ueD2DTx[0].nic.phy  averageCqiDlvect:vector  ETV
attr source  averageCqiDlvect
attr title  "Average Cqi reported in DL, vector"
attr unit  cqi
vector 204  CAIN.ueD2DTx[3].nic.mac  sentPacketToUpperLayer:vector(packetBytes)  ETV
attr interpolationmode  none
attr source  sentPacketToUpperLayer
vector 123  CAIN.ueD2DTx[0].nic.mac  sentPacketToUpperLayer:vector(packetBytes)  ETV
attr interpolationmode  none
attr source  sentPacketToUpperLayer
vector 118  CAIN.ueD2DTx[0].nic.pdcpRrc  receivedPacketFromLowerLayer:vector(packetBytes)  ETV
attr interpolationmode  none
attr source  receivedPacketFromLowerLayer
vector 119  CAIN.ueD2DTx[0].nic.pdcpRrc  sentPacketToUpperLayer:vector(packetBytes)  ETV
attr interpolationmode  none
attr source  sentPacketToUpperLayer
vector 92  CAIN.eNodeB.nic.mac  HopDistanceSignal:vector  ETV
attr interpolationmode  none
attr title  "Distance to enb with hop forwarding, vector"
vector 90  CAIN.eNodeB.nic.mac  CainHopMessage:vector  ETV
attr interpolationmode  none
attr title  "eNB received CAIN hop message, vector"
vector 189  CAIN.ueD2DTx[2].nic.phy  averageCqiDlvect:vector  ETV
attr source  averageCqiDlvect
attr title  "Average Cqi reported in DL, vector"
attr unit  cqi
vector 177  CAIN.ueD2DTx[2].nic.mac  sentPacketToUpperLayer:vector(packetBytes)  ETV
attr interpolationmode  none
attr source  sentPacketToUpperLayer
vector 172  CAIN.ueD2DTx[2].nic.pdcpRrc  receivedPacketFromLowerLayer:vector(packetBytes)  ETV
attr interpolationmode  none
attr source  receivedPacketFromLowerLayer
vector 173  CAIN.ueD2DTx[2].nic.pdcpRrc  sentPacketToUpperLayer:vector(packetBytes)  ETV
attr interpolationmode  none
attr source  sentPacketToUpperLayer
vector 336  CAIN.ueD2DTx[1].tcp  tcpRcvQueueBytes  ETV
vector 323  CAIN.ueD2DTx[1].tcp  "advertised window"  ETV
vector 322  CAIN.ueD2DTx[1].tcp  "receive window"  ETV
vector 325  CAIN.ueD2DTx[1].tcp  "sent ack"  ETV
vector 144  CAIN.ueD2DTx[1].nic.pdcpRrc  receivedPacketFromUpperLayer:vector(packetBytes)  ETV
attr interpolationmode  none
attr source  receivedPacketFromUpperLayer
vector 147  CAIN.ueD2DTx[1].nic.pdcpRrc  sentPacketToLowerLayer:vector(packetBytes)  ETV
attr interpolationmode  none
attr source  sentPacketToLowerLayer
vector 148  CAIN.ueD2DTx[1].nic.mac  receivedPacketFromUpperLayer:vector(packetBytes)  ETV
attr interpolationmode  none
attr source  receivedPacketFromUpperLayer
vector 150  CAIN.ueD2DTx[1].nic.mac  sentPacketToUpperLayer:vector(packetBytes)  ETV
attr interpolationmode  none
attr source  sentPacketToUpperLayer
vector 360  CAIN.ueD2DTx[2].tcp  tcpRcvQueueBytes  ETV
vector 347  CAIN.ueD2DTx[2].tcp  "advertised window"  ETV
vector 346  CAIN.ueD2DTx[2].tcp  "receive window"  ETV
vector 349  CAIN.ueD2DTx[2].tcp  "sent ack"  ETV
vector 171  CAIN.ueD2DTx[2].nic.pdcpRrc  receivedPacketFromUpperLayer:vector(packetBytes)  ETV
attr interpolationmode  none
attr source  receivedPacketFromUpperLayer
vector 174  CAIN.ueD2DTx[2].nic.pdcpRrc  sentPacketToLowerLayer:vector(packetBytes)  ETV
attr interpolationmode  none
attr source  sentPacketToLowerLayer
vector 175  CAIN.ueD2DTx[2].nic.mac  receivedPacketFromUpperLayer:vector(packetBytes)  ETV
attr interpolationmode  none
attr source  receivedPacketFromUpperLayer
vector 243  CAIN.ueD2DTx[4].nic.phy  averageCqiDlvect:vector  ETV
attr source  averageCqiDlvect
attr title  "Average Cqi reported in DL, vector"
attr unit  cqi
vector 226  CAIN.ueD2DTx[4].nic.pdcpRrc  receivedPacketFromLowerLayer:vector(packetBytes)  ETV
attr interpolationmode  none
attr source  receivedPacketFromLowerLayer
vector 227  CAIN.ueD2DTx[4].nic.pdcpRrc  sentPacketToUpperLayer:vector(packetBytes)  ETV
attr interpolationmode  none
attr source  sentPacketToUpperLayer
8	17357 8 0 0 0 0 1 0 0 0 0
9	17365 8 0 0 0 0 1 0 0 0 0
24	17373 9 0 0 0 0 1 0 0 0 0
25	17382 9 0 0 0 0 1 0 0 0 0
35	17391 9 0 0 0 0 1 0 0 0 0
36	17400 9 0 0 0 0 1 0 0 0 0
56	17409 9 0 0 0 0 1 0 0 0 0
57	17418 9 0 0 0 0 1 0 0 0 0
67	17427 9 0 0 0 0 1 0 0 0 0
68	17436 9 0 0 0 0 1 0 0 0 0
80	17445 211 507 216045 0.029 9.056 12 44 44 528 23232
81	17656 211 502 216040 0.029 9.056 12 45 45 540 24300
82	17867 211 502 216040 0.029 9.056 12 44 44 528 23232
83	18078 211 507 216045 0.029 9.056 12 45 45 540 24300
84	18289 422 510 216085 0.029 9.057 24 45 47 1104 50808
85	18711 390592 60 238483 0.002 9.999 22379 0 0 0 0
86	409303 410 498 216081 0.029 9.057 24 0 47 564 26508
87	409713 105424 279 238486 0.022 10 6078 0 0 0 0
88	515137 211 534 216081 0.03 9.057 12 26 26 312 8112
89	515348 247620 432 238474 0.026 9.998 12012 1 12012 72150078 577801874650
90	762968 774 757 216309 0.035 9.065 45 1 45 1035 31395
91	763742 233859 432 238474 0.026 9.998 11967 93 424 4435587 1712361303
92	997601 828 757 216309 0.035 9.065 45 208 265 10230 2357550
93	998429 209940 432 238474 0.026 9.998 11967 1 5 59806 298952
96	1208369 41005 279 238483 0.022 9.999 2053 1 2053 2108431 2886442039
97	1249374 40008 279 238483 0.022 9.999 2053 93 265 421333 87137761
99	1289382 214 411 215960 0.026 9.053 12 15 15 180 2700
104	1289596 10 0 0 0 0 1 0 0 0 0
105	1289606 10 0 0 0 0 1 0 0 0 0
117	1289616 83 286 214839 0.022359778942 9.022359778942 3 44 44 132 5808
118	1289699 56 701 215265 0.034 9.034 3 45 45 135 6075
119	1289755 56 701 215265 0.034 9.034 3 44 44 132 5808
120	1289811 83 286 214839 0.022359778942 9.022359778942 3 45 45 135 6075
121	1289894 83 289 214842 0.022359778942 9.022359778942 3 45 45 135 6075
122	1289977 111187 328 238406 0.024 9.996 5997 0 0 0 0
123	1401164 56 697 215261 0.034 9.034 3 47 47 141 6627
124	1401220 111204 292 238446 0.023 9.998 5998 0 0 0 0
133	1512424 85033 328 238406 0.024 9.996 3999 1 3999 7998000 21325334000
134	1597457 78142 328 238406 0.024 9.996 3999 93 93 371907 34587351
135	1675599 56 590 215154 0.031 9.031 3 15 15 45 675
138	1675655 10 0 0 0 0 1 1 1 1 1
144	1675665 83 951 215514 0.041596848876 9.041596848876 3 44 44 132 5808
147	1675748 83 951 215514 0.041596848876 9.041596848876 3 45 45 135 6075
148	1675831 140 954 215657 0.041596848876 9.046 6 45 47 276 12702
149	1675971 74251 331 238409 0.024 9.996 4005 0 0 0 0
150	1750222 54 1090 215653 0.046 9.046 3 0 0 0 0
151	1750276 74250 331 238409 0.024 9.996 4005 0 0 0 0
160	1824526 85033 331 238409 0.024 9.996 3999 1 3999 7998000 21325334000
161	1909559 78142 331 238409 0.024 9.996 3999 93 93 371907 34587351
165	1987701 10 0 0 0 0 1 1 1 1 1
171	1987711 84 1183 215745 0.047412531788 9.047412531788 3 44 44 132 5808
172	1987795 56 920 215484 0.041 9.041 3 45 45 135 6075
173	1987851 56 920 215484 0.041 9.041 3 44 44 132 5808
174	1987907 84 1183 215745 0.047412531788 9.047412531788 3 45 45 135 6075
175	1987991 141 1186 215907 0.047412531788 9.052 6 45 47 276 12702
176	1988132 74304 334 238412 0.024 9.996 4008 0 0 0 0
177	2062436 110 916 215903 0.041 9.052 6 0 47 141 6627
178	2062546 74304 334 238412 0.024 9.996 4008 0 0 0 0
187	2136850 85033 334 238412 0.024 9.996 3999 1 3999 7998000 21325334000
188	2221883 78142 334 238412 0.024 9.996 3999 93 93 371907 34587351
189	2300025 56 856 215420 0.038 9.038 3 15 15 45 675
192	2300081 10 0 0 0 0 1 1 1 1 1
198	2300091 83 473 215037 0.027975086716 9.027975086716 3 44 44 132 5808
201	2300174 83 473 215037 0.027975086716 9.027975086716 3 45 45 135 6075
202	2300257 139 476 215188 0.027975086716 9.032 6 45 47 276 12702
203	2300396 148810 300 238495 0.023 10 8092 0 0 0 0
204	2449206 53 620 215184 0.032 9.032 3 0 0 0 0
205	2449259 220496 300 238495 0.023 10 12078 0 0 0 0
214	2669755 171855 300 238495 0.023 10 8086 1 8086 32695741 176262739731
215	2841610 160734 300 238495 0.023 10 8086 0 265 1366170 314073090
219	3002344 10 0 0 0 0 1 1 1 1 1
225	3002354 83 259 214774 0.020840842782 9.020840842782 3 44 44 132 5808
226	3002437 114 1457 216196 0.055 9.061 6 45 45 270 12150
227	3002551 114 1457 216196 0.055 9.061 6 44 44 264 11616
228	3002665 83 259 214774 0.020840842782 9.020840842782 3 45 45 135 6075
229	3002748 139 262 214925 0.020840842782 9.025 6 45 47 276 12702
230	3002887 148790 305 238500 0.023 10 8089 0 0 0 0
231	3151677 167 356 216192 0.025 9.061 9 0 47 282 13254
232	3151844 220479 268 238500 0.021 10 12075 0 0 0 0
241	3372323 171703 305 238500 0.023 10 8077 1 8077 32623003 175674871155
242	3544026 160663 305 238500 0.023 10 8077 0 265 1372308 315487620
243	3704689 114 1352 216116 0.052 9.058 6 15 15 90 1350
246	3704803 10 0 0 0 0 1 1 1 1 1
250	3704813 89 256 214771 0.020840842782 9.020840842782 3 7504 7504 22512 168930048
251	3704902 89 256 214771 0.020840842782 9.020840842782 3 7504 7504 22512 168930048
253	3704991 80 256 214771 0.020840842782 9.020840842782 3 0 0 0 0
264	3705071 80 256 214771 0.020840842782 9.020840842782 3 0 0 0 0
274	3705151 89 283 214836 0.022359778942 9.022359778942 3 7504 7504 22512 168930048
275	3705240 89 283 214836 0.022359778942 9.022359778942 3 7504 7504 22512 168930048
277	3705329 80 283 214836 0.022359778942 9.022359778942 3 0 0 0 0
288	3705409 80 283 214836 0.022359778942 9.022359778942 3 0 0 0 0
298	3705489 89 470 215034 0.027975086716 9.027975086716 3 7504 7504 22512 168930048
299	3705578 89 470 215034 0.027975086716 9.027975086716 3 7504 7504 22512 168930048
301	3705667 80 470 215034 0.027975086716 9.027975086716 3 0 0 0 0
312	3705747 80 470 215034 0.027975086716 9.027975086716 3 0 0 0 0
322	3705827 89 948 215511 0.041596848876 9.041596848876 3 7504 7504 22512 168930048
323	3705916 89 948 215511 0.041596848876 9.041596848876 3 7504 7504 22512 168930048
325	3706005 80 948 215511 0.041596848876 9.041596848876 3 0 0 0 0
336	3706085 80 948 215511 0.041596848876 9.041596848876 3 0 0 0 0
346	3706165 90 1180 215742 0.047412531788 9.047412531788 3 7504 7504 22512 168930048
347	3706255 90 1180 215742 0.047412531788 9.047412531788 3 7504 7504 22512 168930048
349	3706345 81 1180 215742 0.047412531788 9.047412531788 3 0 0 0 0
360	3706426 81 1180 215742 0.047412531788 9.047412531788 3 0 0 0 0
