file 7405714 1580828434                                         
version 2
run CAIN-136-20200204-11:59:39-10316
attr configname CAIN
attr datetime 20200204-11:59:39
attr dist 210
attr experiment CAIN
attr inifile omnetpp.ini
attr iterationvars "$dist=210, $mob=\"./movements/RWPRPGM-0.5.movements\""
attr iterationvars2 "$dist=210, $mob=\"./movements/RWPRPGM-0.5.movements\", $repetition=31"
attr measurement "$dist=210, $mob=\"./movements/RWPRPGM-0.5.movements\""
attr mob "\"./movements/RWPRPGM-0.5.movements\""
attr network lte.simulations.networks.CAIN
attr processid 10316
attr repetition 31
attr replication #31
attr resultdir results
attr runnumber 136
attr seedset 31
param **.**.amcMode "\"AUTO\""
param **.amcMode "\"D2D\""
param **.cainNetwork true
param **.channelControl.alpha 1.0
param **.channelControl.carrierFrequency 2100e+6Hz
param **.channelControl.pMax 10W
param **.d2dCqi 7
param **.deployer.numRbDl 50
param **.deployer.numRbUl 50
param **.distThresh "${dist=200..260 step 10}"
param **.fbDelay 1
param **.feedbackComputation "xmldoc(\"config_channel.xml\")"
param **.mobility.constraintAreaMaxX 1000m
param **.mobility.constraintAreaMaxY 1000m
param **.mobility.constraintAreaMaxZ 0m
param **.mobility.constraintAreaMinX 0m
param **.mobility.constraintAreaMinY 0m
param **.mobility.constraintAreaMinZ 0m
param **.nic.phy.channelModel "xmldoc(\"config_channel.xml\")"
param **.numBands 50
param **.pwrThresh -10
param **.qtdThresh 3
param **.rbAllocationType "\"localized\""
param **.routingRecorder.enabled false
param **.tcpApp[*].tClose -1s
param **.ueD2DTx[*].mobility.changeAngleBy "normal(0deg, 30deg)"
param **.ueD2DTx[*].mobility.changeInterval "normal(5s, 0.1s)"
param **.ueD2DTx[*].mobility.nodeId -1
param **.ueD2DTx[*].mobility.speed "normal(2mps, 0.01mps)"
param **.ueD2DTx[*].mobility.traceFile "${mob=\"./movements/RWPRPGM-0.0.movements\",\"./movements/RWPRPGM-0.5.movements\"}"
param **.ueD2DTx[*].mobilityType "\"BonnMotionMobility\""
param **.usePreconfiguredTxParams false
param *.eNodeB.d2dCapable false
param *.eNodeB.mobility.initFromDisplayString false
param *.eNodeB.mobility.initialX 300m
param *.eNodeB.mobility.initialY 300m
param *.eNodeB.nic.phy.enableD2DCqiReporting true
param *.eNodeB.txPower 19952.62315mw
param *.numUeCell 0
param *.numUeD2DRx 1
param *.numUeD2DTx 1
param *.ue*.macCellId 1
param *.ue*.masterId 1
param *.ue*.mobility.initFromDisplayString false
param *.ue*[0].macCellId 1
param *.ue*[0].masterId 1
param *.ue*[0].mobility.initFromDisplayString false
param *.ueD2D*.numTcpApps 1
param *.ueD2D*[*].d2dCapable true
param *.ueD2D*[0].d2dCapable false
param *.ueD2D*[0].numTcpApps 1
param *.ueD2DRx[0].mobility.initialX 310m
param *.ueD2DRx[0].mobility.initialY 350m
param *.ueD2DRx[0].tcpApp[*].localPort 1000
param *.ueD2DRx[0].tcpApp[*].typename "\"TCPSinkApp\""
param *.ueD2DTx*.tcpApp[*].connectAddress "\"ueD2DTx[0]\""
param *.ueD2DTx*.tcpApp[*].localAddress "\"ueD2DTx\""
param *.ueD2DTx*.tcpApp[*].localPort 1000
param *.ueD2DTx*.tcpApp[*].sendBytes 1GiB
param *.ueD2DTx*.tcpApp[*].typename "\"TCPSessionApp\""
param *.ueD2DTx*.tcpApp[0].active true
param *.ueD2DTx*.tcpApp[0].connectPort 1000
param *.ueD2DTx*.tcpApp[0].tOpen uniform(0.010s,0.1s)
param *.ueD2DTx*.tcpApp[0].tSend uniform(0.15s,0.5s)
param *.ueD2DTx[0].mobility.initialX 290m
param *.ueD2DTx[0].mobility.initialY 350m
param *.ueD2DTx[0].nic.d2dPeerAddresses "\"ueD2DTx[1]\""
param *.ueD2DTx[0].tcpApp[*].localPort 1000
param *.ueD2DTx[0].tcpApp[*].sendBytes 1GiB
param *.ueD2DTx[0].tcpApp[*].typename "\"TCPSessionApp\""
param *.ueD2DTx[0].tcpApp[0].active true
param *.ueD2DTx[0].tcpApp[0].connectAddress "\"ueD2DRx[0]\""
param *.ueD2DTx[0].tcpApp[0].connectPort 1000
param *.ueD2DTx[0].tcpApp[0].localAddress "\"ueD2DTx[0]\""
param *.ueD2DTx[0].tcpApp[0].tOpen uniform(0.010s,0.1s)
param *.ueD2DTx[0].tcpApp[0].tSend uniform(0.15s,0.5s)
param *.ueD2DTx[1].nic.d2dPeerAddresses "\"ueD2DTx[0]\""

vector 8  CAIN.server.ppp[0].queue  queueLength:vector  ETV
attr interpolationmode  sample-hold
attr title  "queue length, vector"
vector 9  CAIN.server.ppp[0].ppp  txState:vector  ETV
attr interpolationmode  sample-hold
attr title  "tx state, vector"
vector 24  CAIN.router.ppp[0].queue  queueLength:vector  ETV
attr interpolationmode  sample-hold
attr title  "queue length, vector"
vector 25  CAIN.router.ppp[0].ppp  txState:vector  ETV
attr interpolationmode  sample-hold
attr title  "tx state, vector"
vector 35  CAIN.router.ppp[1].queue  queueLength:vector  ETV
attr interpolationmode  sample-hold
attr title  "queue length, vector"
vector 36  CAIN.router.ppp[1].ppp  txState:vector  ETV
attr interpolationmode  sample-hold
attr title  "tx state, vector"
vector 56  CAIN.pgw.ppp[0].queue  queueLength:vector  ETV
attr interpolationmode  sample-hold
attr title  "queue length, vector"
vector 57  CAIN.pgw.ppp[0].ppp  txState:vector  ETV
attr interpolationmode  sample-hold
attr title  "tx state, vector"
vector 67  CAIN.pgw.pppInterface.queue  queueLength:vector  ETV
attr interpolationmode  sample-hold
attr title  "queue length, vector"
vector 68  CAIN.pgw.pppInterface.ppp  txState:vector  ETV
attr interpolationmode  sample-hold
attr title  "tx state, vector"
vector 104  CAIN.eNodeB.pppIf.queue  queueLength:vector  ETV
attr interpolationmode  sample-hold
attr title  "queue length, vector"
vector 105  CAIN.eNodeB.pppIf.ppp  txState:vector  ETV
attr interpolationmode  sample-hold
attr title  "tx state, vector"
vector 138  CAIN.ueD2DTx[0].nic.phy  servingCell:vector  ETV
attr source  servingCell
attr title  "ID of the serving eNodeB for the UE, vector"
attr unit  ""
vector 165  CAIN.ueD2DTx[1].nic.phy  servingCell:vector  ETV
attr source  servingCell
attr title  "ID of the serving eNodeB for the UE, vector"
attr unit  ""
vector 192  CAIN.ueD2DTx[2].nic.phy  servingCell:vector  ETV
attr source  servingCell
attr title  "ID of the serving eNodeB for the UE, vector"
attr unit  ""
vector 219  CAIN.ueD2DTx[3].nic.phy  servingCell:vector  ETV
attr source  servingCell
attr title  "ID of the serving eNodeB for the UE, vector"
attr unit  ""
vector 246  CAIN.ueD2DTx[4].nic.phy  servingCell:vector  ETV
attr source  servingCell
attr title  "ID of the serving eNodeB for the UE, vector"
attr unit  ""
vector 85  CAIN.eNodeB.nic.mac  receivedPacketFromLowerLayer:vector(packetBytes)  ETV
attr interpolationmode  none
attr source  receivedPacketFromLowerLayer
vector 264  CAIN.ueD2DTx[1].tcp  tcpRcvQueueBytes  ETV
vector 251  CAIN.ueD2DTx[1].tcp  "advertised window"  ETV
vector 250  CAIN.ueD2DTx[1].tcp  "receive window"  ETV
vector 253  CAIN.ueD2DTx[1].tcp  "sent ack"  ETV
vector 144  CAIN.ueD2DTx[1].nic.pdcpRrc  receivedPacketFromUpperLayer:vector(packetBytes)  ETV
attr interpolationmode  none
attr source  receivedPacketFromUpperLayer
vector 147  CAIN.ueD2DTx[1].nic.pdcpRrc  sentPacketToLowerLayer:vector(packetBytes)  ETV
attr interpolationmode  none
attr source  sentPacketToLowerLayer
vector 148  CAIN.ueD2DTx[1].nic.mac  receivedPacketFromUpperLayer:vector(packetBytes)  ETV
attr interpolationmode  none
attr source  receivedPacketFromUpperLayer
vector 288  CAIN.ueD2DTx[2].tcp  tcpRcvQueueBytes  ETV
vector 275  CAIN.ueD2DTx[2].tcp  "advertised window"  ETV
vector 274  CAIN.ueD2DTx[2].tcp  "receive window"  ETV
vector 277  CAIN.ueD2DTx[2].tcp  "sent ack"  ETV
vector 171  CAIN.ueD2DTx[2].nic.pdcpRrc  receivedPacketFromUpperLayer:vector(packetBytes)  ETV
attr interpolationmode  none
attr source  receivedPacketFromUpperLayer
vector 174  CAIN.ueD2DTx[2].nic.pdcpRrc  sentPacketToLowerLayer:vector(packetBytes)  ETV
attr interpolationmode  none
attr source  sentPacketToLowerLayer
vector 175  CAIN.ueD2DTx[2].nic.mac  receivedPacketFromUpperLayer:vector(packetBytes)  ETV
attr interpolationmode  none
attr source  receivedPacketFromUpperLayer
vector 151  CAIN.ueD2DTx[1].nic.mac  sentPacketToLowerLayer:vector(packetBytes)  ETV
attr interpolationmode  none
attr source  sentPacketToLowerLayer
vector 178  CAIN.ueD2DTx[2].nic.mac  sentPacketToLowerLayer:vector(packetBytes)  ETV
attr interpolationmode  none
attr source  sentPacketToLowerLayer
vector 96  CAIN.eNodeB.nic.mac  racpkt:vector  ETV
attr interpolationmode  none
attr title  "eNB received racpkt message, vector"
vector 97  CAIN.eNodeB.nic.mac  racDistanceSignal:vector  ETV
attr interpolationmode  none
attr title  "Rac distance to enb, vector"
vector 87  CAIN.eNodeB.nic.mac  sentPacketToLowerLayer:vector(packetBytes)  ETV
attr interpolationmode  none
attr source  sentPacketToLowerLayer
vector 149  CAIN.ueD2DTx[1].nic.mac  receivedPacketFromLowerLayer:vector(packetBytes)  ETV
attr interpolationmode  none
attr source  receivedPacketFromLowerLayer
vector 160  CAIN.ueD2DTx[1].nic.mac  racpkt:vector  ETV
attr interpolationmode  none
attr title  "eNB received racpkt message, vector"
vector 161  CAIN.ueD2DTx[1].nic.mac  racDistanceSignal:vector  ETV
attr interpolationmode  none
attr title  "Rac distance to enb, vector"
vector 176  CAIN.ueD2DTx[2].nic.mac  receivedPacketFromLowerLayer:vector(packetBytes)  ETV
attr interpolationmode  none
attr source  receivedPacketFromLowerLayer
vector 122  CAIN.ueD2DTx[0].nic.mac  receivedPacketFromLowerLayer:vector(packetBytes)  ETV
attr interpolationmode  none
attr source  receivedPacketFromLowerLayer
vector 133  CAIN.ueD2DTx[0].nic.mac  racpkt:vector  ETV
attr interpolationmode  none
attr title  "eNB received racpkt message, vector"
vector 134  CAIN.ueD2DTx[0].nic.mac  racDistanceSignal:vector  ETV
attr interpolationmode  none
attr title  "Rac distance to enb, vector"
vector 124  CAIN.ueD2DTx[0].nic.mac  sentPacketToLowerLayer:vector(packetBytes)  ETV
attr interpolationmode  none
attr source  sentPacketToLowerLayer
vector 203  CAIN.ueD2DTx[3].nic.mac  receivedPacketFromLowerLayer:vector(packetBytes)  ETV
attr interpolationmode  none
attr source  receivedPacketFromLowerLayer
vector 214  CAIN.ueD2DTx[3].nic.mac  racpkt:vector  ETV
attr interpolationmode  none
attr title  "eNB received racpkt message, vector"
vector 215  CAIN.ueD2DTx[3].nic.mac  racDistanceSignal:vector  ETV
attr interpolationmode  none
attr title  "Rac distance to enb, vector"
vector 205  CAIN.ueD2DTx[3].nic.mac  sentPacketToLowerLayer:vector(packetBytes)  ETV
attr interpolationmode  none
attr source  sentPacketToLowerLayer
vector 187  CAIN.ueD2DTx[2].nic.mac  racpkt:vector  ETV
attr interpolationmode  none
attr title  "eNB received racpkt message, vector"
vector 188  CAIN.ueD2DTx[2].nic.mac  racDistanceSignal:vector  ETV
attr interpolationmode  none
attr title  "Rac distance to enb, vector"
vector 177  CAIN.ueD2DTx[2].nic.mac  sentPacketToUpperLayer:vector(packetBytes)  ETV
attr interpolationmode  none
attr source  sentPacketToUpperLayer
vector 230  CAIN.ueD2DTx[4].nic.mac  receivedPacketFromLowerLayer:vector(packetBytes)  ETV
attr interpolationmode  none
attr source  receivedPacketFromLowerLayer
vector 241  CAIN.ueD2DTx[4].nic.mac  racpkt:vector  ETV
attr interpolationmode  none
attr title  "eNB received racpkt message, vector"
vector 242  CAIN.ueD2DTx[4].nic.mac  racDistanceSignal:vector  ETV
attr interpolationmode  none
attr title  "Rac distance to enb, vector"
vector 232  CAIN.ueD2DTx[4].nic.mac  sentPacketToLowerLayer:vector(packetBytes)  ETV
attr interpolationmode  none
attr source  sentPacketToLowerLayer
vector 99  CAIN.eNodeB.nic.phy  averageCqiUlvect:vector  ETV
attr source  averageCqiUlvect
attr title  "Average Cqi reported in UL, vector"
attr unit  cqi
vector 93  CAIN.eNodeB.nic.mac  ServedDevs:vector  ETV
attr interpolationmode  none
attr title  "# of devices served on cain forwarding, vector"
vector 91  CAIN.eNodeB.nic.mac  DistanceSignal:vector  ETV
attr interpolationmode  none
attr title  "Distance to enb, vector"
vector 89  CAIN.eNodeB.nic.mac  CainMessage:vector  ETV
attr interpolationmode  none
attr title  "eNB received CAIN message, vector"
vector 92  CAIN.eNodeB.nic.mac  HopDistanceSignal:vector  ETV
attr interpolationmode  none
attr title  "Distance to enb with hop forwarding, vector"
vector 90  CAIN.eNodeB.nic.mac  CainHopMessage:vector  ETV
attr interpolationmode  none
attr title  "eNB received CAIN hop message, vector"
vector 86  CAIN.eNodeB.nic.mac  sentPacketToUpperLayer:vector(packetBytes)  ETV
attr interpolationmode  none
attr source  sentPacketToUpperLayer
vector 81  CAIN.eNodeB.nic.pdcpRrc  receivedPacketFromLowerLayer:vector(packetBytes)  ETV
attr interpolationmode  none
attr source  receivedPacketFromLowerLayer
vector 82  CAIN.eNodeB.nic.pdcpRrc  sentPacketToUpperLayer:vector(packetBytes)  ETV
attr interpolationmode  none
attr source  sentPacketToUpperLayer
vector 80  CAIN.eNodeB.nic.pdcpRrc  receivedPacketFromUpperLayer:vector(packetBytes)  ETV
attr interpolationmode  none
attr source  receivedPacketFromUpperLayer
vector 83  CAIN.eNodeB.nic.pdcpRrc  sentPacketToLowerLayer:vector(packetBytes)  ETV
attr interpolationmode  none
attr source  sentPacketToLowerLayer
vector 84  CAIN.eNodeB.nic.mac  receivedPacketFromUpperLayer:vector(packetBytes)  ETV
attr interpolationmode  none
attr source  receivedPacketFromUpperLayer
vector 88  CAIN.eNodeB.nic.mac  measuredItbs:vector  ETV
attr source  measuredItbs
attr title  "TBS index, vector"
attr unit  ""
vector 135  CAIN.ueD2DTx[0].nic.phy  averageCqiDlvect:vector  ETV
attr source  averageCqiDlvect
attr title  "Average Cqi reported in DL, vector"
attr unit  cqi
vector 123  CAIN.ueD2DTx[0].nic.mac  sentPacketToUpperLayer:vector(packetBytes)  ETV
attr interpolationmode  none
attr source  sentPacketToUpperLayer
vector 118  CAIN.ueD2DTx[0].nic.pdcpRrc  receivedPacketFromLowerLayer:vector(packetBytes)  ETV
attr interpolationmode  none
attr source  receivedPacketFromLowerLayer
vector 119  CAIN.ueD2DTx[0].nic.pdcpRrc  sentPacketToUpperLayer:vector(packetBytes)  ETV
attr interpolationmode  none
attr source  sentPacketToUpperLayer
vector 312  CAIN.ueD2DTx[4].tcp  tcpRcvQueueBytes  ETV
vector 299  CAIN.ueD2DTx[4].tcp  "advertised window"  ETV
vector 298  CAIN.ueD2DTx[4].tcp  "receive window"  ETV
vector 301  CAIN.ueD2DTx[4].tcp  "sent ack"  ETV
vector 225  CAIN.ueD2DTx[4].nic.pdcpRrc  receivedPacketFromUpperLayer:vector(packetBytes)  ETV
attr interpolationmode  none
attr source  receivedPacketFromUpperLayer
vector 228  CAIN.ueD2DTx[4].nic.pdcpRrc  sentPacketToLowerLayer:vector(packetBytes)  ETV
attr interpolationmode  none
attr source  sentPacketToLowerLayer
vector 229  CAIN.ueD2DTx[4].nic.mac  receivedPacketFromUpperLayer:vector(packetBytes)  ETV
attr interpolationmode  none
attr source  receivedPacketFromUpperLayer
vector 231  CAIN.ueD2DTx[4].nic.mac  sentPacketToUpperLayer:vector(packetBytes)  ETV
attr interpolationmode  none
attr source  sentPacketToUpperLayer
vector 336  CAIN.ueD2DTx[3].tcp  tcpRcvQueueBytes  ETV
vector 323  CAIN.ueD2DTx[3].tcp  "advertised window"  ETV
vector 322  CAIN.ueD2DTx[3].tcp  "receive window"  ETV
vector 325  CAIN.ueD2DTx[3].tcp  "sent ack"  ETV
vector 198  CAIN.ueD2DTx[3].nic.pdcpRrc  receivedPacketFromUpperLayer:vector(packetBytes)  ETV
attr interpolationmode  none
attr source  receivedPacketFromUpperLayer
vector 201  CAIN.ueD2DTx[3].nic.pdcpRrc  sentPacketToLowerLayer:vector(packetBytes)  ETV
attr interpolationmode  none
attr source  sentPacketToLowerLayer
vector 202  CAIN.ueD2DTx[3].nic.mac  receivedPacketFromUpperLayer:vector(packetBytes)  ETV
attr interpolationmode  none
attr source  receivedPacketFromUpperLayer
vector 204  CAIN.ueD2DTx[3].nic.mac  sentPacketToUpperLayer:vector(packetBytes)  ETV
attr interpolationmode  none
attr source  sentPacketToUpperLayer
vector 360  CAIN.ueD2DTx[0].tcp  tcpRcvQueueBytes  ETV
vector 347  CAIN.ueD2DTx[0].tcp  "advertised window"  ETV
vector 346  CAIN.ueD2DTx[0].tcp  "receive window"  ETV
vector 349  CAIN.ueD2DTx[0].tcp  "sent ack"  ETV
vector 117  CAIN.ueD2DTx[0].nic.pdcpRrc  receivedPacketFromUpperLayer:vector(packetBytes)  ETV
attr interpolationmode  none
attr source  receivedPacketFromUpperLayer
vector 120  CAIN.ueD2DTx[0].nic.pdcpRrc  sentPacketToLowerLayer:vector(packetBytes)  ETV
attr interpolationmode  none
attr source  sentPacketToLowerLayer
vector 121  CAIN.ueD2DTx[0].nic.mac  receivedPacketFromUpperLayer:vector(packetBytes)  ETV
attr interpolationmode  none
attr source  receivedPacketFromUpperLayer
vector 162  CAIN.ueD2DTx[1].nic.phy  averageCqiDlvect:vector  ETV
attr source  averageCqiDlvect
attr title  "Average Cqi reported in DL, vector"
attr unit  cqi
vector 150  CAIN.ueD2DTx[1].nic.mac  sentPacketToUpperLayer:vector(packetBytes)  ETV
attr interpolationmode  none
attr source  sentPacketToUpperLayer
vector 145  CAIN.ueD2DTx[1].nic.pdcpRrc  receivedPacketFromLowerLayer:vector(packetBytes)  ETV
attr interpolationmode  none
attr source  receivedPacketFromLowerLayer
vector 146  CAIN.ueD2DTx[1].nic.pdcpRrc  sentPacketToUpperLayer:vector(packetBytes)  ETV
attr interpolationmode  none
attr source  sentPacketToUpperLayer
8	16783 8 0 0 0 0 1 0 0 0 0
9	16791 8 0 0 0 0 1 0 0 0 0
24	16799 9 0 0 0 0 1 0 0 0 0
25	16808 9 0 0 0 0 1 0 0 0 0
35	16817 9 0 0 0 0 1 0 0 0 0
36	16826 9 0 0 0 0 1 0 0 0 0
56	16835 9 0 0 0 0 1 0 0 0 0
57	16844 9 0 0 0 0 1 0 0 0 0
67	16853 9 0 0 0 0 1 0 0 0 0
68	16862 9 0 0 0 0 1 0 0 0 0
80	16871 158 473 329975 0.027 9.09 9 44 44 396 17424
81	17029 158 468 329970 0.027 9.09 9 45 45 405 18225
82	17187 158 468 329970 0.027 9.09 9 44 44 396 17424
83	17345 158 473 329975 0.027 9.09 9 45 45 405 18225
84	17503 316 476 330025 0.027 9.091 18 45 47 828 38106
85	17819 551143 60 370427 0.002 10 31408 0 0 0 0
86	568962 307 464 330020 0.027 9.091 18 0 47 423 19881
87	569269 263637 274 370399 0.02 10 15108 0 0 0 0
88	832906 158 497 330020 0.028 9.091 9 26 26 234 6084
89	833064 401414 398 370427 0.024 10 19066 1 19066 181765711 2310423952521
90	1234478 112449 461 370427 0.026 10 5545 1 5545 15376285 56846125645
91	1346927 266377 398 370378 0.024 9.999 13521 152 424 4288052 1582117114
92	1613304 108011 461 370427 0.026 10 5545 221 224 1232676 274032564
93	1721315 239335 398 370378 0.024 9.999 13521 1 3 40560 121676
96	1960650 193745 274 370427 0.02 10 9534 1 9534 45453345 288916611935
97	2154395 177773 274 370427 0.02 10 9534 44 223 738137 79775733
99	2332168 160 392 329816 0.024 9.087 9 15 15 135 2025
104	2332328 10 0 0 0 0 1 0 0 0 0
105	2332338 10 0 0 0 0 1 0 0 0 0
117	2332348 84 1964 329871 0.087354178994 9.087354178994 3 44 44 132 5808
118	2332432 113 590 328266 0.032 9.054 6 45 45 270 12150
119	2332545 113 590 328266 0.032 9.054 6 44 44 264 11616
120	2332658 84 1964 329871 0.087354178994 9.087354178994 3 45 45 135 6075
121	2332742 84 1967 329874 0.087354178994 9.087354178994 3 45 45 135 6075
122	2332826 349246 318 370373 0.022 9.999 18629 0 0 0 0
123	2682072 113 586 328262 0.032 9.054 6 47 47 282 13254
124	2682185 349263 318 370373 0.022 9.999 18630 0 0 0 0
133	3031448 367591 318 370373 0.022 9.999 16641 1 16641 138469761 1536229685121
134	3399039 334321 318 370373 0.022 9.999 16641 44 224 1861612 313532508
135	3733360 113 532 328131 0.029 9.051 6 15 15 90 1350
138	3733473 10 0 0 0 0 1 1 1 1 1
144	3733483 80 230 326483 0.01870336741 9.01870336741 3 44 44 132 5808
145	3733563 57 2206 330213 0.095 9.095 3 45 45 135 6075
146	3733620 57 2206 330213 0.095 9.095 3 44 44 132 5808
147	3733677 80 230 326483 0.01870336741 9.01870336741 3 45 45 135 6075
148	3733757 80 233 326486 0.01870336741 9.01870336741 3 45 45 135 6075
149	3733837 450781 291 370419 0.021 10 24363 0 0 0 0
150	4184618 57 2202 330209 0.095 9.095 3 47 47 141 6627
151	4184675 568197 249 370419 0.019 10 30779 0 0 0 0
160	4752872 491839 291 370419 0.021 10 22364 1 22364 250085430 3728690399490
161	5244711 439838 291 370419 0.021 10 22364 0 169 2148847 333605919
162	5684549 57 2119 330093 0.092 9.092 3 15 15 45 675
165	5684606 10 0 0 0 0 1 1 1 1 1
171	5684616 83 238 326490 0.018862475525 9.018862475525 3 44 44 132 5808
174	5684699 83 238 326490 0.018862475525 9.018862475525 3 45 45 135 6075
175	5684782 139 241 326723 0.018862475525 9.023 6 45 47 276 12702
176	5684921 191801 316 370422 0.022 10 10235 0 0 0 0
177	5876722 53 344 326719 0.023 9.023 3 0 0 0 0
178	5876775 221024 251 370422 0.019 10 11796 0 0 0 0
187	6097799 221505 324 370422 0.022 10 10229 1 10229 52321335 356814064255
188	6319304 203482 324 370422 0.022 10 10229 0 168 867793 128325727
192	6522786 10 0 0 0 0 1 1 1 1 1
198	6522796 84 1768 329511 0.081870692614 9.081870692614 3 44 44 132 5808
201	6522880 84 1768 329511 0.081870692614 9.081870692614 3 45 45 135 6075
202	6522964 141 1771 329735 0.081870692614 9.086 6 45 47 276 12702
203	6523105 104152 321 370280 0.022 9.997 5553 0 0 0 0
204	6627257 54 1887 329731 0.086 9.086 3 0 0 0 0
205	6627311 104152 321 370280 0.022 9.997 5553 0 0 0 0
214	6731463 119578 321 370280 0.022 9.997 5547 1 5547 15387378 56907652970
215	6851041 109591 321 370280 0.022 9.997 5547 44 87 314237 19696679
219	6960632 10 0 0 0 0 1 1 1 1 1
225	6960642 83 790 327556 0.040899513697 9.040899513697 3 44 44 132 5808
228	6960725 83 790 327556 0.040899513697 9.040899513697 3 45 45 135 6075
229	6960808 139 793 327799 0.040899513697 9.045 6 45 47 276 12702
230	6960947 104149 356 370329 0.023 9.998 5553 0 0 0 0
231	7065096 53 923 327795 0.045 9.045 3 0 0 0 0
232	7065149 104151 356 370329 0.023 9.998 5553 0 0 0 0
241	7169300 119579 356 370329 0.023 9.998 5547 1 5547 15387378 56907652970
242	7288879 115139 356 370329 0.023 9.998 5547 167 169 929392 155720450
246	7404018 10 0 0 0 0 1 1 1 1 1
250	7404028 86 227 326480 0.01870336741 9.01870336741 3 7504 7504 22512 168930048
251	7404114 86 227 326480 0.01870336741 9.01870336741 3 7504 7504 22512 168930048
253	7404200 77 227 326480 0.01870336741 9.01870336741 3 0 0 0 0
264	7404277 77 227 326480 0.01870336741 9.01870336741 3 0 0 0 0
274	7404354 89 235 326487 0.018862475525 9.018862475525 3 7504 7504 22512 168930048
275	7404443 89 235 326487 0.018862475525 9.018862475525 3 7504 7504 22512 168930048
277	7404532 80 235 326487 0.018862475525 9.018862475525 3 0 0 0 0
288	7404612 80 235 326487 0.018862475525 9.018862475525 3 0 0 0 0
298	7404692 89 787 327553 0.040899513697 9.040899513697 3 7504 7504 22512 168930048
299	7404781 89 787 327553 0.040899513697 9.040899513697 3 7504 7504 22512 168930048
301	7404870 80 787 327553 0.040899513697 9.040899513697 3 0 0 0 0
312	7404950 80 787 327553 0.040899513697 9.040899513697 3 0 0 0 0
322	7405030 90 1765 329508 0.081870692614 9.081870692614 3 7504 7504 22512 168930048
323	7405120 90 1765 329508 0.081870692614 9.081870692614 3 7504 7504 22512 168930048
325	7405210 81 1765 329508 0.081870692614 9.081870692614 3 0 0 0 0
336	7405291 81 1765 329508 0.081870692614 9.081870692614 3 0 0 0 0
346	7405372 90 1961 329868 0.087354178994 9.087354178994 3 7504 7504 22512 168930048
347	7405462 90 1961 329868 0.087354178994 9.087354178994 3 7504 7504 22512 168930048
349	7405552 81 1961 329868 0.087354178994 9.087354178994 3 0 0 0 0
360	7405633 81 1961 329868 0.087354178994 9.087354178994 3 0 0 0 0
