file 5706600 1589561784                                         
version 2
run CAIN-14-20200515-13:51:31-16159
attr configname CAIN
attr datetime 20200515-13:51:31
attr dist 200
attr experiment CAIN
attr inifile omnetpp.ini
attr iterationvars "$numUe=20, $pwr=-50, $dist=200, $mob=\"./movements/RPGM-0.0.movements\""
attr iterationvars2 "$numUe=20, $pwr=-50, $dist=200, $mob=\"./movements/RPGM-0.0.movements\", $repetition=4"
attr measurement "$numUe=20, $pwr=-50, $dist=200, $mob=\"./movements/RPGM-0.0.movements\""
attr mob "\"./movements/RPGM-0.0.movements\""
attr network lte.simulations.networks.CAIN
attr numUe 20
attr processid 16159
attr pwr -50
attr repetition 4
attr replication #4
attr resultdir results
attr runnumber 14
attr seedset 4
param **.**.amcMode "\"AUTO\""
param **.amcMode "\"D2D\""
param **.cainNetwork true
param **.channelControl.alpha 1.0
param **.channelControl.carrierFrequency 2100e+6Hz
param **.channelControl.pMax 10W
param **.d2dCqi 7
param **.deployer.numRbDl 50
param **.deployer.numRbUl 50
param **.distThresh ${dist=200}
param **.fbDelay 1
param **.feedbackComputation "xmldoc(\"config_channel.xml\")"
param **.mobility.constraintAreaMaxX 1000m
param **.mobility.constraintAreaMaxY 1000m
param **.mobility.constraintAreaMaxZ 0m
param **.mobility.constraintAreaMinX 0m
param **.mobility.constraintAreaMinY 0m
param **.mobility.constraintAreaMinZ 0m
param **.nic.phy.channelModel "xmldoc(\"config_channel.xml\")"
param **.numBands 50
param **.pwrThresh "${pwr= -50}"
param **.qtdThresh 3
param **.rbAllocationType "\"localized\""
param **.routingRecorder.enabled false
param **.tcpApp[*].tClose -1s
param **.ueD2DTx[*].mobility.changeAngleBy "normal(0deg, 30deg)"
param **.ueD2DTx[*].mobility.changeInterval "normal(5s, 0.1s)"
param **.ueD2DTx[*].mobility.nodeId -1
param **.ueD2DTx[*].mobility.speed "normal(2mps, 0.01mps)"
param **.ueD2DTx[*].mobility.traceFile "${mob=\"./movements/RWP-0.0.movements\",\"./movements/RWP-0.5.movements\",\"./movements/RPGM-0.0.movements\",\"./movements/RPGM-0.5.movements\",\"./movements/RWPRPGM-0.0.movements\",\"./movements/RWPRPGM-0.5.movements\"}"
param **.ueD2DTx[*].mobilityType "\"BonnMotionMobility\""
param **.usePreconfiguredTxParams false
param *.eNodeB*.numX2Apps 1
param *.eNodeB*.x2App[*].server.localPort "5000 + ancestorIndex(1)"
param *.eNodeB.d2dCapable false
param *.eNodeB.mobility.initFromDisplayString false
param *.eNodeB.mobility.initialX 300m
param *.eNodeB.mobility.initialY 300m
param *.eNodeB.nic.phy.enableD2DCqiReporting true
param *.eNodeB.txPower 19952.62315mw
param *.eNodeB.x2App[0].client.connectAddress "\"eNodeB1%x2ppp0\""
param *.eNodeB1.d2dCapable true
param *.eNodeB1.mobility.initFromDisplayString false
param *.eNodeB1.mobility.initialX 700m
param *.eNodeB1.mobility.initialY 300m
param *.eNodeB1.nic.phy.enableD2DCqiReporting true
param *.eNodeB1.txPower 19952.62315mw
param *.eNodeB1.x2App[0].client.connectAddress "\"eNodeB%x2ppp0\""
param *.extCell[*].bandAllocationType "\"FULL_ALLOC\""
param *.extCell[*].bandUtilization 0.5
param *.extCell[*].txDirection "\"ANISOTROPIC\""
param *.extCell[*].txPower 20
param *.extCell[0].position_x 100m
param *.extCell[0].position_y 600m
param *.extCell[0].txAngle 315
param *.extCell[1].position_x 600m
param *.extCell[1].position_y 600m
param *.extCell[1].txAngle 225
param *.numExtCells 2
param *.numUeCell 0
param *.numUeD2DRx 1
param *.numUeD2DTx 1
param *.ue*.macCellId 1
param *.ue*.masterId 1
param *.ue*.mobility.initFromDisplayString false
param *.ue*[0].macCellId 1
param *.ue*[0].masterId 1
param *.ue*[0].mobility.initFromDisplayString false
param *.ueD2D*.numTcpApps 1
param *.ueD2D*[*].d2dCapable true
param *.ueD2D*[0].d2dCapable false
param *.ueD2D*[0].numTcpApps 1
param *.ueD2DRx[0].mobility.initialX 310m
param *.ueD2DRx[0].mobility.initialY 350m
param *.ueD2DRx[0].tcpApp[*].localPort 1000
param *.ueD2DRx[0].tcpApp[*].typename "\"TCPSinkApp\""
param *.ueD2DTx*.nic.d2dPeerAddresses "\"ueD2DTx[1]\""
param *.ueD2DTx*.tcpApp[*].connectAddress "\"ueD2DTx[0]\""
param *.ueD2DTx*.tcpApp[*].localAddress "\"ueD2DTx\""
param *.ueD2DTx*.tcpApp[*].localPort 1000
param *.ueD2DTx*.tcpApp[*].sendBytes 1GiB
param *.ueD2DTx*.tcpApp[*].typename "\"TCPSessionApp\""
param *.ueD2DTx*.tcpApp[0].active true
param *.ueD2DTx*.tcpApp[0].connectPort 1000
param *.ueD2DTx*.tcpApp[0].tOpen uniform(0.010s,0.1s)
param *.ueD2DTx*.tcpApp[0].tSend uniform(0.15s,0.5s)
param *.ueD2DTx[0].mobility.initialX 290m
param *.ueD2DTx[0].mobility.initialY 350m
param *.ueD2DTx[0].tcpApp[*].localPort 1000
param *.ueD2DTx[0].tcpApp[*].sendBytes 1GiB
param *.ueD2DTx[0].tcpApp[*].typename "\"TCPSessionApp\""
param *.ueD2DTx[0].tcpApp[0].active true
param *.ueD2DTx[0].tcpApp[0].connectAddress "\"ueD2DRx[0]\""
param *.ueD2DTx[0].tcpApp[0].connectPort 1000
param *.ueD2DTx[0].tcpApp[0].localAddress "\"ueD2DTx[0]\""
param *.ueD2DTx[0].tcpApp[0].tOpen uniform(0.010s,0.1s)
param *.ueD2DTx[0].tcpApp[0].tSend uniform(0.15s,0.5s)

vector 8  CAIN.server.ppp[0].queue  queueLength:vector  ETV
attr interpolationmode  sample-hold
attr title  "queue length, vector"
vector 9  CAIN.server.ppp[0].ppp  txState:vector  ETV
attr interpolationmode  sample-hold
attr title  "tx state, vector"
vector 24  CAIN.router.ppp[0].queue  queueLength:vector  ETV
attr interpolationmode  sample-hold
attr title  "queue length, vector"
vector 25  CAIN.router.ppp[0].ppp  txState:vector  ETV
attr interpolationmode  sample-hold
attr title  "tx state, vector"
vector 35  CAIN.router.ppp[1].queue  queueLength:vector  ETV
attr interpolationmode  sample-hold
attr title  "queue length, vector"
vector 36  CAIN.router.ppp[1].ppp  txState:vector  ETV
attr interpolationmode  sample-hold
attr title  "tx state, vector"
vector 56  CAIN.pgw.ppp[0].queue  queueLength:vector  ETV
attr interpolationmode  sample-hold
attr title  "queue length, vector"
vector 57  CAIN.pgw.ppp[0].ppp  txState:vector  ETV
attr interpolationmode  sample-hold
attr title  "tx state, vector"
vector 67  CAIN.pgw.ppp[1].queue  queueLength:vector  ETV
attr interpolationmode  sample-hold
attr title  "queue length, vector"
vector 68  CAIN.pgw.ppp[1].ppp  txState:vector  ETV
attr interpolationmode  sample-hold
attr title  "tx state, vector"
vector 78  CAIN.pgw.pppInterface.queue  queueLength:vector  ETV
attr interpolationmode  sample-hold
attr title  "queue length, vector"
vector 79  CAIN.pgw.pppInterface.ppp  txState:vector  ETV
attr interpolationmode  sample-hold
attr title  "tx state, vector"
vector 120  CAIN.eNodeB.pppIf.queue  queueLength:vector  ETV
attr interpolationmode  sample-hold
attr title  "queue length, vector"
vector 121  CAIN.eNodeB.pppIf.ppp  txState:vector  ETV
attr interpolationmode  sample-hold
attr title  "tx state, vector"
vector 131  CAIN.eNodeB.x2ppp[0].queue  queueLength:vector  ETV
attr interpolationmode  sample-hold
attr title  "queue length, vector"
vector 132  CAIN.eNodeB.x2ppp[0].ppp  txState:vector  ETV
attr interpolationmode  sample-hold
attr title  "tx state, vector"
vector 178  CAIN.eNodeB1.pppIf.queue  queueLength:vector  ETV
attr interpolationmode  sample-hold
attr title  "queue length, vector"
vector 179  CAIN.eNodeB1.pppIf.ppp  txState:vector  ETV
attr interpolationmode  sample-hold
attr title  "tx state, vector"
vector 189  CAIN.eNodeB1.x2ppp[0].queue  queueLength:vector  ETV
attr interpolationmode  sample-hold
attr title  "queue length, vector"
vector 190  CAIN.eNodeB1.x2ppp[0].ppp  txState:vector  ETV
attr interpolationmode  sample-hold
attr title  "tx state, vector"
vector 231  CAIN.ueD2DTx[0].nic.phy  servingCell:vector  ETV
attr source  servingCell
attr title  "ID of the serving eNodeB for the UE, vector"
attr unit  ""
vector 263  CAIN.ueD2DTx[1].nic.phy  servingCell:vector  ETV
attr source  servingCell
attr title  "ID of the serving eNodeB for the UE, vector"
attr unit  ""
vector 295  CAIN.ueD2DTx[2].nic.phy  servingCell:vector  ETV
attr source  servingCell
attr title  "ID of the serving eNodeB for the UE, vector"
attr unit  ""
vector 327  CAIN.ueD2DTx[3].nic.phy  servingCell:vector  ETV
attr source  servingCell
attr title  "ID of the serving eNodeB for the UE, vector"
attr unit  ""
vector 359  CAIN.ueD2DTx[4].nic.phy  servingCell:vector  ETV
attr source  servingCell
attr title  "ID of the serving eNodeB for the UE, vector"
attr unit  ""
vector 391  CAIN.ueD2DTx[5].nic.phy  servingCell:vector  ETV
attr source  servingCell
attr title  "ID of the serving eNodeB for the UE, vector"
attr unit  ""
vector 423  CAIN.ueD2DTx[6].nic.phy  servingCell:vector  ETV
attr source  servingCell
attr title  "ID of the serving eNodeB for the UE, vector"
attr unit  ""
vector 455  CAIN.ueD2DTx[7].nic.phy  servingCell:vector  ETV
attr source  servingCell
attr title  "ID of the serving eNodeB for the UE, vector"
attr unit  ""
vector 487  CAIN.ueD2DTx[8].nic.phy  servingCell:vector  ETV
attr source  servingCell
attr title  "ID of the serving eNodeB for the UE, vector"
attr unit  ""
vector 519  CAIN.ueD2DTx[9].nic.phy  servingCell:vector  ETV
attr source  servingCell
attr title  "ID of the serving eNodeB for the UE, vector"
attr unit  ""
vector 551  CAIN.ueD2DTx[10].nic.phy  servingCell:vector  ETV
attr source  servingCell
attr title  "ID of the serving eNodeB for the UE, vector"
attr unit  ""
vector 583  CAIN.ueD2DTx[11].nic.phy  servingCell:vector  ETV
attr source  servingCell
attr title  "ID of the serving eNodeB for the UE, vector"
attr unit  ""
vector 615  CAIN.ueD2DTx[12].nic.phy  servingCell:vector  ETV
attr source  servingCell
attr title  "ID of the serving eNodeB for the UE, vector"
attr unit  ""
vector 647  CAIN.ueD2DTx[13].nic.phy  servingCell:vector  ETV
attr source  servingCell
attr title  "ID of the serving eNodeB for the UE, vector"
attr unit  ""
vector 679  CAIN.ueD2DTx[14].nic.phy  servingCell:vector  ETV
attr source  servingCell
attr title  "ID of the serving eNodeB for the UE, vector"
attr unit  ""
vector 711  CAIN.ueD2DTx[15].nic.phy  servingCell:vector  ETV
attr source  servingCell
attr title  "ID of the serving eNodeB for the UE, vector"
attr unit  ""
vector 743  CAIN.ueD2DTx[16].nic.phy  servingCell:vector  ETV
attr source  servingCell
attr title  "ID of the serving eNodeB for the UE, vector"
attr unit  ""
vector 775  CAIN.ueD2DTx[17].nic.phy  servingCell:vector  ETV
attr source  servingCell
attr title  "ID of the serving eNodeB for the UE, vector"
attr unit  ""
vector 807  CAIN.ueD2DTx[18].nic.phy  servingCell:vector  ETV
attr source  servingCell
attr title  "ID of the serving eNodeB for the UE, vector"
attr unit  ""
vector 839  CAIN.ueD2DTx[19].nic.phy  servingCell:vector  ETV
attr source  servingCell
attr title  "ID of the serving eNodeB for the UE, vector"
attr unit  ""
vector 863  CAIN.eNodeB.sctp  "Throughput of Association 3"  ETV
vector 885  CAIN.eNodeB1.sctp  "Throughput of Association 4"  ETV
vector 907  CAIN.eNodeB.sctp  "Throughput of Association 1"  ETV
vector 927  CAIN.eNodeB.sctp  "Fast Recovery State 1:10.0.5.2"  ETV
vector 956  CAIN.eNodeB1.sctp  "Throughput of Association 2"  ETV
vector 976  CAIN.eNodeB1.sctp  "Fast Recovery State 2:10.0.5.1"  ETV
vector 128  CAIN.eNodeB.x2ppp[0].queue  rcvdPk:vector(packetBytes)  ETV
attr interpolationmode  none
attr title  "received packets, vector(packetBytes)"
vector 130  CAIN.eNodeB.x2ppp[0].queue  queueingTime:vector  ETV
attr interpolationmode  none
attr title  "queueing time, vector"
vector 186  CAIN.eNodeB1.x2ppp[0].queue  rcvdPk:vector(packetBytes)  ETV
attr interpolationmode  none
attr title  "received packets, vector(packetBytes)"
vector 188  CAIN.eNodeB1.x2ppp[0].queue  queueingTime:vector  ETV
attr interpolationmode  none
attr title  "queueing time, vector"
vector 137  CAIN.eNodeB.x2ppp[0].ppp  rcvdPkFromHL:vector(packetBytes)  ETV
attr interpolationmode  none
attr source  packetReceivedFromUpper
attr title  "packets received from higher layer, vector(packetBytes)"
vector 133  CAIN.eNodeB.x2ppp[0].ppp  txPk:vector(packetBytes)  ETV
attr interpolationmode  none
attr source  packetSentToLower
attr title  "packets transmitted, vector(packetBytes)"
vector 195  CAIN.eNodeB1.x2ppp[0].ppp  rcvdPkFromHL:vector(packetBytes)  ETV
attr interpolationmode  none
attr source  packetReceivedFromUpper
attr title  "packets received from higher layer, vector(packetBytes)"
vector 191  CAIN.eNodeB1.x2ppp[0].ppp  txPk:vector(packetBytes)  ETV
attr interpolationmode  none
attr source  packetSentToLower
attr title  "packets transmitted, vector(packetBytes)"
vector 192  CAIN.eNodeB1.x2ppp[0].ppp  rxPkOk:vector(packetBytes)  ETV
attr interpolationmode  none
attr source  rxPkOk
attr title  "packets received OK, vector(packetBytes)"
vector 196  CAIN.eNodeB1.x2ppp[0].ppp  passedUpPk:vector(packetBytes)  ETV
attr interpolationmode  none
attr source  packetSentToUpper
attr title  "packets passed to higher layer, vector(packetBytes)"
vector 134  CAIN.eNodeB.x2ppp[0].ppp  rxPkOk:vector(packetBytes)  ETV
attr interpolationmode  none
attr source  rxPkOk
attr title  "packets received OK, vector(packetBytes)"
vector 138  CAIN.eNodeB.x2ppp[0].ppp  passedUpPk:vector(packetBytes)  ETV
attr interpolationmode  none
attr source  packetSentToUpper
attr title  "packets passed to higher layer, vector(packetBytes)"
vector 1005  CAIN.eNodeB1.sctp  "Throughput of Association 4"  ETV
vector 882  CAIN.eNodeB1.sctp  "Peer Rwnd 4"  ETV
vector 1025  CAIN.eNodeB1.sctp  "Fast Recovery State 5:10.0.4.1"  ETV
vector 1052  CAIN.eNodeB1.sctp  "Fast Recovery State 5:10.0.2.2"  ETV
vector 1079  CAIN.eNodeB1.sctp  "Fast Recovery State 5:10.0.5.1"  ETV
vector 1108  CAIN.eNodeB.sctp  "Throughput of Association 3"  ETV
vector 860  CAIN.eNodeB.sctp  "Peer Rwnd 3"  ETV
vector 1128  CAIN.eNodeB.sctp  "Fast Recovery State 6:10.0.4.2"  ETV
vector 1155  CAIN.eNodeB.sctp  "Fast Recovery State 6:10.0.3.2"  ETV
vector 1182  CAIN.eNodeB.sctp  "Fast Recovery State 6:10.0.5.2"  ETV
vector 904  CAIN.eNodeB.sctp  "Peer Rwnd 1"  ETV
vector 1209  CAIN.eNodeB.sctp  "Fast Recovery State 1:10.0.4.2"  ETV
vector 1236  CAIN.eNodeB.sctp  "Fast Recovery State 1:10.0.3.2"  ETV
vector 953  CAIN.eNodeB1.sctp  "Peer Rwnd 2"  ETV
vector 1263  CAIN.eNodeB1.sctp  "Fast Recovery State 2:10.0.4.1"  ETV
vector 1290  CAIN.eNodeB1.sctp  "Fast Recovery State 2:10.0.2.2"  ETV
vector 1035  CAIN.eNodeB1.sctp  "Slow Start Threshold 5:10.0.2.2"  ETV
vector 1036  CAIN.eNodeB1.sctp  "Congestion Window 5:10.0.2.2"  ETV
vector 1037  CAIN.eNodeB1.sctp  "Bandwidth 5:10.0.2.2"  ETV
vector 1040  CAIN.eNodeB1.sctp  "HB Sent 5:10.0.2.2"  ETV
vector 1033  CAIN.eNodeB1.sctp  "RTO 5:10.0.2.2"  ETV
vector 1008  CAIN.eNodeB1.sctp  "Slow Start Threshold 5:10.0.4.1"  ETV
vector 1009  CAIN.eNodeB1.sctp  "Congestion Window 5:10.0.4.1"  ETV
vector 1010  CAIN.eNodeB1.sctp  "Bandwidth 5:10.0.4.1"  ETV
vector 1013  CAIN.eNodeB1.sctp  "HB Sent 5:10.0.4.1"  ETV
vector 1006  CAIN.eNodeB1.sctp  "RTO 5:10.0.4.1"  ETV
vector 1062  CAIN.eNodeB1.sctp  "Slow Start Threshold 5:10.0.5.1"  ETV
vector 1063  CAIN.eNodeB1.sctp  "Congestion Window 5:10.0.5.1"  ETV
vector 1064  CAIN.eNodeB1.sctp  "Bandwidth 5:10.0.5.1"  ETV
vector 1060  CAIN.eNodeB1.sctp  "RTO 5:10.0.5.1"  ETV
vector 1138  CAIN.eNodeB.sctp  "Slow Start Threshold 6:10.0.3.2"  ETV
vector 1139  CAIN.eNodeB.sctp  "Congestion Window 6:10.0.3.2"  ETV
vector 1140  CAIN.eNodeB.sctp  "Bandwidth 6:10.0.3.2"  ETV
vector 1143  CAIN.eNodeB.sctp  "HB Sent 6:10.0.3.2"  ETV
vector 1136  CAIN.eNodeB.sctp  "RTO 6:10.0.3.2"  ETV
vector 1111  CAIN.eNodeB.sctp  "Slow Start Threshold 6:10.0.4.2"  ETV
vector 1112  CAIN.eNodeB.sctp  "Congestion Window 6:10.0.4.2"  ETV
vector 1113  CAIN.eNodeB.sctp  "Bandwidth 6:10.0.4.2"  ETV
vector 1116  CAIN.eNodeB.sctp  "HB Sent 6:10.0.4.2"  ETV
vector 1109  CAIN.eNodeB.sctp  "RTO 6:10.0.4.2"  ETV
vector 1165  CAIN.eNodeB.sctp  "Slow Start Threshold 6:10.0.5.2"  ETV
vector 1166  CAIN.eNodeB.sctp  "Congestion Window 6:10.0.5.2"  ETV
vector 1167  CAIN.eNodeB.sctp  "Bandwidth 6:10.0.5.2"  ETV
vector 1163  CAIN.eNodeB.sctp  "RTO 6:10.0.5.2"  ETV
vector 916  CAIN.eNodeB.sctp  "HB ACK Sent 1:10.0.5.2"  ETV
vector 917  CAIN.eNodeB.sctp  "HB Received 1:10.0.5.2"  ETV
vector 965  CAIN.eNodeB1.sctp  "HB ACK Sent 2:10.0.5.1"  ETV
vector 966  CAIN.eNodeB1.sctp  "HB Received 2:10.0.5.1"  ETV
vector 1219  CAIN.eNodeB.sctp  "Slow Start Threshold 1:10.0.3.2"  ETV
vector 1220  CAIN.eNodeB.sctp  "Congestion Window 1:10.0.3.2"  ETV
vector 1221  CAIN.eNodeB.sctp  "Bandwidth 1:10.0.3.2"  ETV
vector 1224  CAIN.eNodeB.sctp  "HB Sent 1:10.0.3.2"  ETV
vector 1217  CAIN.eNodeB.sctp  "RTO 1:10.0.3.2"  ETV
vector 1192  CAIN.eNodeB.sctp  "Slow Start Threshold 1:10.0.4.2"  ETV
vector 1193  CAIN.eNodeB.sctp  "Congestion Window 1:10.0.4.2"  ETV
vector 1194  CAIN.eNodeB.sctp  "Bandwidth 1:10.0.4.2"  ETV
vector 1197  CAIN.eNodeB.sctp  "HB Sent 1:10.0.4.2"  ETV
vector 1190  CAIN.eNodeB.sctp  "RTO 1:10.0.4.2"  ETV
vector 910  CAIN.eNodeB.sctp  "Slow Start Threshold 1:10.0.5.2"  ETV
vector 911  CAIN.eNodeB.sctp  "Congestion Window 1:10.0.5.2"  ETV
vector 912  CAIN.eNodeB.sctp  "Bandwidth 1:10.0.5.2"  ETV
vector 908  CAIN.eNodeB.sctp  "RTO 1:10.0.5.2"  ETV
vector 1273  CAIN.eNodeB1.sctp  "Slow Start Threshold 2:10.0.2.2"  ETV
vector 1274  CAIN.eNodeB1.sctp  "Congestion Window 2:10.0.2.2"  ETV
vector 1275  CAIN.eNodeB1.sctp  "Bandwidth 2:10.0.2.2"  ETV
vector 1278  CAIN.eNodeB1.sctp  "HB Sent 2:10.0.2.2"  ETV
vector 1271  CAIN.eNodeB1.sctp  "RTO 2:10.0.2.2"  ETV
vector 1246  CAIN.eNodeB1.sctp  "Slow Start Threshold 2:10.0.4.1"  ETV
vector 1247  CAIN.eNodeB1.sctp  "Congestion Window 2:10.0.4.1"  ETV
vector 1248  CAIN.eNodeB1.sctp  "Bandwidth 2:10.0.4.1"  ETV
vector 1251  CAIN.eNodeB1.sctp  "HB Sent 2:10.0.4.1"  ETV
vector 1244  CAIN.eNodeB1.sctp  "RTO 2:10.0.4.1"  ETV
vector 959  CAIN.eNodeB1.sctp  "Slow Start Threshold 2:10.0.5.1"  ETV
vector 960  CAIN.eNodeB1.sctp  "Congestion Window 2:10.0.5.1"  ETV
vector 961  CAIN.eNodeB1.sctp  "Bandwidth 2:10.0.5.1"  ETV
vector 957  CAIN.eNodeB1.sctp  "RTO 2:10.0.5.1"  ETV
vector 1173  CAIN.eNodeB.sctp  "HB ACK Received 6:10.0.5.2"  ETV
vector 1164  CAIN.eNodeB.sctp  "RTT 6:10.0.5.2"  ETV
vector 1070  CAIN.eNodeB1.sctp  "HB ACK Received 5:10.0.5.1"  ETV
vector 1061  CAIN.eNodeB1.sctp  "RTT 5:10.0.5.1"  ETV
vector 1171  CAIN.eNodeB.sctp  "HB ACK Sent 6:10.0.5.2"  ETV
vector 1172  CAIN.eNodeB.sctp  "HB Received 6:10.0.5.2"  ETV
vector 1068  CAIN.eNodeB1.sctp  "HB ACK Sent 5:10.0.5.1"  ETV
vector 1069  CAIN.eNodeB1.sctp  "HB Received 5:10.0.5.1"  ETV
vector 967  CAIN.eNodeB1.sctp  "HB ACK Received 2:10.0.5.1"  ETV
vector 958  CAIN.eNodeB1.sctp  "RTT 2:10.0.5.1"  ETV
vector 918  CAIN.eNodeB.sctp  "HB ACK Received 1:10.0.5.2"  ETV
vector 909  CAIN.eNodeB.sctp  "RTT 1:10.0.5.2"  ETV
vector 96  CAIN.eNodeB.nic.mac  receivedPacketFromLowerLayer:vector(packetBytes)  ETV
attr interpolationmode  none
attr source  receivedPacketFromLowerLayer
vector 1305  CAIN.eNodeB.sctp  "SendQueue of Association 6"  ETV
vector 1168  CAIN.eNodeB.sctp  "TSN Sent 6:10.0.5.2"  ETV
vector 1175  CAIN.eNodeB.sctp  "Outstanding Bytes 6:10.0.5.2"  ETV
vector 848  CAIN.eNodeB.sctp  "Outstanding Bytes 3:Total"  ETV
vector 1174  CAIN.eNodeB.sctp  "Queued Sent Bytes 6:10.0.5.2"  ETV
vector 847  CAIN.eNodeB.sctp  "Queued Sent Bytes 3:Total"  ETV
vector 963  CAIN.eNodeB1.sctp  "TSN Received 2:10.0.5.1"  ETV
vector 939  CAIN.eNodeB1.sctp  "Queued Received Bytes 2:Total"  ETV
vector 935  CAIN.eNodeB1.sctp  "Advertised Receiver Window 2"  ETV
vector 944  CAIN.eNodeB1.sctp  "Number of Total Gap Blocks Stored 2"  ETV
vector 945  CAIN.eNodeB1.sctp  "Number of Revokable Gap Blocks Stored 2"  ETV
vector 946  CAIN.eNodeB1.sctp  "Number of Non-Revokable Gap Blocks Stored 2"  ETV
vector 947  CAIN.eNodeB1.sctp  "Number of Duplicate TSNs Stored 2"  ETV
vector 951  CAIN.eNodeB1.sctp  "Length of SACK Sent 2"  ETV
vector 948  CAIN.eNodeB1.sctp  "Number of Revokable Gap Blocks Sent 2"  ETV
vector 949  CAIN.eNodeB1.sctp  "Number of Non-Revokable Gap Blocks Sent 2"  ETV
vector 950  CAIN.eNodeB1.sctp  "Number of Duplicate TSNs Sent 2"  ETV
vector 955  CAIN.eNodeB1.sctp  "End to End Delay of Association 2"  ETV
vector 199  CAIN.eNodeB1.x2App[0].client  rcvdPk:vector(packetBytes)  ETV
attr interpolationmode  none
attr source  rcvdPk
attr title  "packets received, vector(packetBytes)"
vector 1304  CAIN.eNodeB.sctp  "Number of Gap Blocks in Last SACK of Association 6"  ETV
vector 849  CAIN.eNodeB.sctp  "Number of Revokable Gap Blocks in SACK 3"  ETV
vector 850  CAIN.eNodeB.sctp  "Number of Non-Revokable Gap Blocks in SACK 3"  ETV
vector 1185  CAIN.eNodeB.sctp  "TSN Acked CumAck 6:10.0.5.2"  ETV
vector 1151  CAIN.eNodeB.sctp  "Number of Gap Acked Chunks in Last SACK 6:10.0.3.2"  ETV
vector 1152  CAIN.eNodeB.sctp  "Number of Non-Revokable Gap Acked Chunks in Last SACK 6:10.0.3.2"  ETV
vector 1153  CAIN.eNodeB.sctp  "Number of Gap Missed Chunks in Last SACK 6:10.0.3.2"  ETV
vector 1124  CAIN.eNodeB.sctp  "Number of Gap Acked Chunks in Last SACK 6:10.0.4.2"  ETV
vector 1125  CAIN.eNodeB.sctp  "Number of Non-Revokable Gap Acked Chunks in Last SACK 6:10.0.4.2"  ETV
vector 1126  CAIN.eNodeB.sctp  "Number of Gap Missed Chunks in Last SACK 6:10.0.4.2"  ETV
vector 1178  CAIN.eNodeB.sctp  "Number of Gap Acked Chunks in Last SACK 6:10.0.5.2"  ETV
vector 1179  CAIN.eNodeB.sctp  "Number of Non-Revokable Gap Acked Chunks in Last SACK 6:10.0.5.2"  ETV
vector 1180  CAIN.eNodeB.sctp  "Number of Gap Missed Chunks in Last SACK 6:10.0.5.2"  ETV
vector 859  CAIN.eNodeB.sctp  "Arwnd in Last SACK 3"  ETV
vector 1187  CAIN.eNodeB.sctp  "TSN PseudoCumAck 6:10.0.5.2"  ETV
vector 1188  CAIN.eNodeB.sctp  "TSN RTXPseudoCumAck 6:10.0.5.2"  ETV
vector 1181  CAIN.eNodeB.sctp  "Partial Bytes Acked 6:10.0.5.2"  ETV
vector 1333  CAIN.ueD2DTx[16].tcp  tcpRcvQueueBytes  ETV
vector 1320  CAIN.ueD2DTx[16].tcp  "advertised window"  ETV
vector 1319  CAIN.ueD2DTx[16].tcp  "receive window"  ETV
vector 1322  CAIN.ueD2DTx[16].tcp  "sent ack"  ETV
vector 717  CAIN.ueD2DTx[16].nic.pdcpRrc  receivedPacketFromUpperLayer:vector(packetBytes)  ETV
attr interpolationmode  none
attr source  receivedPacketFromUpperLayer
vector 720  CAIN.ueD2DTx[16].nic.pdcpRrc  sentPacketToLowerLayer:vector(packetBytes)  ETV
attr interpolationmode  none
attr source  sentPacketToLowerLayer
vector 721  CAIN.ueD2DTx[16].nic.mac  receivedPacketFromUpperLayer:vector(packetBytes)  ETV
attr interpolationmode  none
attr source  receivedPacketFromUpperLayer
vector 731  CAIN.ueD2DTx[16].nic.mac  CainHopMessageSent:vector  ETV
attr interpolationmode  none
attr title  "# of Sent CAIN hop message, vector"
vector 724  CAIN.ueD2DTx[16].nic.mac  sentPacketToLowerLayer:vector(packetBytes)  ETV
attr interpolationmode  none
attr source  sentPacketToLowerLayer
vector 754  CAIN.ueD2DTx[17].nic.mac  receivedPacketFromLowerLayer:vector(packetBytes)  ETV
attr interpolationmode  none
attr source  receivedPacketFromLowerLayer
vector 756  CAIN.ueD2DTx[17].nic.mac  sentPacketToLowerLayer:vector(packetBytes)  ETV
attr interpolationmode  none
attr source  sentPacketToLowerLayer
vector 242  CAIN.ueD2DTx[1].nic.mac  receivedPacketFromLowerLayer:vector(packetBytes)  ETV
attr interpolationmode  none
attr source  receivedPacketFromLowerLayer
vector 244  CAIN.ueD2DTx[1].nic.mac  sentPacketToLowerLayer:vector(packetBytes)  ETV
attr interpolationmode  none
attr source  sentPacketToLowerLayer
vector 111  CAIN.eNodeB.nic.mac  racpkt:vector  ETV
attr interpolationmode  none
attr title  "eNB received racpkt message, vector"
vector 112  CAIN.eNodeB.nic.mac  racDistanceSignal:vector  ETV
attr interpolationmode  none
attr title  "Rac distance to enb, vector"
vector 113  CAIN.eNodeB.nic.mac  racServedDevsSignal:vector  ETV
attr interpolationmode  none
attr title  "# of devices served on rac arriavall, vector"
vector 106  CAIN.eNodeB.nic.mac  DistanceSignal:vector  ETV
attr interpolationmode  none
attr title  "Distance to enb, vector"
vector 101  CAIN.eNodeB.nic.mac  CainHopMessage:vector  ETV
attr interpolationmode  none
attr title  "eNB received CAIN hop message, vector"
vector 98  CAIN.eNodeB.nic.mac  sentPacketToLowerLayer:vector(packetBytes)  ETV
attr interpolationmode  none
attr source  sentPacketToLowerLayer
vector 249  CAIN.ueD2DTx[1].nic.mac  DropedHopMessage:vector  ETV
attr interpolationmode  none
attr title  "Droped Hop CAIN message due to RB not available, vector"
vector 1357  CAIN.ueD2DTx[3].tcp  tcpRcvQueueBytes  ETV
vector 1344  CAIN.ueD2DTx[3].tcp  "advertised window"  ETV
vector 1343  CAIN.ueD2DTx[3].tcp  "receive window"  ETV
vector 1346  CAIN.ueD2DTx[3].tcp  "sent ack"  ETV
vector 301  CAIN.ueD2DTx[3].nic.pdcpRrc  receivedPacketFromUpperLayer:vector(packetBytes)  ETV
attr interpolationmode  none
attr source  receivedPacketFromUpperLayer
vector 304  CAIN.ueD2DTx[3].nic.pdcpRrc  sentPacketToLowerLayer:vector(packetBytes)  ETV
attr interpolationmode  none
attr source  sentPacketToLowerLayer
vector 305  CAIN.ueD2DTx[3].nic.mac  receivedPacketFromUpperLayer:vector(packetBytes)  ETV
attr interpolationmode  none
attr source  receivedPacketFromUpperLayer
vector 315  CAIN.ueD2DTx[3].nic.mac  CainHopMessageSent:vector  ETV
attr interpolationmode  none
attr title  "# of Sent CAIN hop message, vector"
vector 308  CAIN.ueD2DTx[3].nic.mac  sentPacketToLowerLayer:vector(packetBytes)  ETV
attr interpolationmode  none
attr source  sentPacketToLowerLayer
vector 1381  CAIN.ueD2DTx[7].tcp  tcpRcvQueueBytes  ETV
vector 1368  CAIN.ueD2DTx[7].tcp  "advertised window"  ETV
vector 1367  CAIN.ueD2DTx[7].tcp  "receive window"  ETV
vector 1370  CAIN.ueD2DTx[7].tcp  "sent ack"  ETV
vector 429  CAIN.ueD2DTx[7].nic.pdcpRrc  receivedPacketFromUpperLayer:vector(packetBytes)  ETV
attr interpolationmode  none
attr source  receivedPacketFromUpperLayer
vector 432  CAIN.ueD2DTx[7].nic.pdcpRrc  sentPacketToLowerLayer:vector(packetBytes)  ETV
attr interpolationmode  none
attr source  sentPacketToLowerLayer
vector 433  CAIN.ueD2DTx[7].nic.mac  receivedPacketFromUpperLayer:vector(packetBytes)  ETV
attr interpolationmode  none
attr source  receivedPacketFromUpperLayer
vector 442  CAIN.ueD2DTx[7].nic.mac  CainMessageSent:vector  ETV
attr interpolationmode  none
attr title  "# of Sent CAIN message, vector"
vector 436  CAIN.ueD2DTx[7].nic.mac  sentPacketToLowerLayer:vector(packetBytes)  ETV
attr interpolationmode  none
attr source  sentPacketToLowerLayer
vector 466  CAIN.ueD2DTx[8].nic.mac  receivedPacketFromLowerLayer:vector(packetBytes)  ETV
attr interpolationmode  none
attr source  receivedPacketFromLowerLayer
vector 468  CAIN.ueD2DTx[8].nic.mac  sentPacketToLowerLayer:vector(packetBytes)  ETV
attr interpolationmode  none
attr source  sentPacketToLowerLayer
vector 1405  CAIN.ueD2DTx[18].tcp  tcpRcvQueueBytes  ETV
vector 1392  CAIN.ueD2DTx[18].tcp  "advertised window"  ETV
vector 1391  CAIN.ueD2DTx[18].tcp  "receive window"  ETV
vector 1394  CAIN.ueD2DTx[18].tcp  "sent ack"  ETV
vector 781  CAIN.ueD2DTx[18].nic.pdcpRrc  receivedPacketFromUpperLayer:vector(packetBytes)  ETV
attr interpolationmode  none
attr source  receivedPacketFromUpperLayer
vector 784  CAIN.ueD2DTx[18].nic.pdcpRrc  sentPacketToLowerLayer:vector(packetBytes)  ETV
attr interpolationmode  none
attr source  sentPacketToLowerLayer
vector 785  CAIN.ueD2DTx[18].nic.mac  receivedPacketFromUpperLayer:vector(packetBytes)  ETV
attr interpolationmode  none
attr source  receivedPacketFromUpperLayer
vector 795  CAIN.ueD2DTx[18].nic.mac  CainHopMessageSent:vector  ETV
attr interpolationmode  none
attr title  "# of Sent CAIN hop message, vector"
vector 788  CAIN.ueD2DTx[18].nic.mac  sentPacketToLowerLayer:vector(packetBytes)  ETV
attr interpolationmode  none
attr source  sentPacketToLowerLayer
vector 100  CAIN.eNodeB.nic.mac  CainMessage:vector  ETV
attr interpolationmode  none
attr title  "eNB received CAIN message, vector"
vector 472  CAIN.ueD2DTx[8].nic.mac  DropedCainMessage:vector  ETV
attr interpolationmode  none
attr title  "Droped CAIN message due to RB not available, vector"
vector 1429  CAIN.ueD2DTx[10].tcp  tcpRcvQueueBytes  ETV
vector 1416  CAIN.ueD2DTx[10].tcp  "advertised window"  ETV
vector 1415  CAIN.ueD2DTx[10].tcp  "receive window"  ETV
vector 1418  CAIN.ueD2DTx[10].tcp  "sent ack"  ETV
vector 525  CAIN.ueD2DTx[10].nic.pdcpRrc  receivedPacketFromUpperLayer:vector(packetBytes)  ETV
attr interpolationmode  none
attr source  receivedPacketFromUpperLayer
vector 528  CAIN.ueD2DTx[10].nic.pdcpRrc  sentPacketToLowerLayer:vector(packetBytes)  ETV
attr interpolationmode  none
attr source  sentPacketToLowerLayer
vector 529  CAIN.ueD2DTx[10].nic.mac  receivedPacketFromUpperLayer:vector(packetBytes)  ETV
attr interpolationmode  none
attr source  receivedPacketFromUpperLayer
vector 532  CAIN.ueD2DTx[10].nic.mac  sentPacketToLowerLayer:vector(packetBytes)  ETV
attr interpolationmode  none
attr source  sentPacketToLowerLayer
vector 530  CAIN.ueD2DTx[10].nic.mac  receivedPacketFromLowerLayer:vector(packetBytes)  ETV
attr interpolationmode  none
attr source  receivedPacketFromLowerLayer
vector 531  CAIN.ueD2DTx[10].nic.mac  sentPacketToUpperLayer:vector(packetBytes)  ETV
attr interpolationmode  none
attr source  sentPacketToUpperLayer
vector 1453  CAIN.ueD2DTx[8].tcp  tcpRcvQueueBytes  ETV
vector 1440  CAIN.ueD2DTx[8].tcp  "advertised window"  ETV
vector 1439  CAIN.ueD2DTx[8].tcp  "receive window"  ETV
vector 1442  CAIN.ueD2DTx[8].tcp  "sent ack"  ETV
vector 461  CAIN.ueD2DTx[8].nic.pdcpRrc  receivedPacketFromUpperLayer:vector(packetBytes)  ETV
attr interpolationmode  none
attr source  receivedPacketFromUpperLayer
vector 464  CAIN.ueD2DTx[8].nic.pdcpRrc  sentPacketToLowerLayer:vector(packetBytes)  ETV
attr interpolationmode  none
attr source  sentPacketToLowerLayer
vector 465  CAIN.ueD2DTx[8].nic.mac  receivedPacketFromUpperLayer:vector(packetBytes)  ETV
attr interpolationmode  none
attr source  receivedPacketFromUpperLayer
vector 1477  CAIN.ueD2DTx[9].tcp  tcpRcvQueueBytes  ETV
vector 1464  CAIN.ueD2DTx[9].tcp  "advertised window"  ETV
vector 1463  CAIN.ueD2DTx[9].tcp  "receive window"  ETV
vector 1466  CAIN.ueD2DTx[9].tcp  "sent ack"  ETV
vector 493  CAIN.ueD2DTx[9].nic.pdcpRrc  receivedPacketFromUpperLayer:vector(packetBytes)  ETV
attr interpolationmode  none
attr source  receivedPacketFromUpperLayer
vector 496  CAIN.ueD2DTx[9].nic.pdcpRrc  sentPacketToLowerLayer:vector(packetBytes)  ETV
attr interpolationmode  none
attr source  sentPacketToLowerLayer
vector 497  CAIN.ueD2DTx[9].nic.mac  receivedPacketFromUpperLayer:vector(packetBytes)  ETV
attr interpolationmode  none
attr source  receivedPacketFromUpperLayer
vector 500  CAIN.ueD2DTx[9].nic.mac  sentPacketToLowerLayer:vector(packetBytes)  ETV
attr interpolationmode  none
attr source  sentPacketToLowerLayer
vector 1501  CAIN.ueD2DTx[14].tcp  tcpRcvQueueBytes  ETV
vector 1488  CAIN.ueD2DTx[14].tcp  "advertised window"  ETV
vector 1487  CAIN.ueD2DTx[14].tcp  "receive window"  ETV
vector 1490  CAIN.ueD2DTx[14].tcp  "sent ack"  ETV
vector 653  CAIN.ueD2DTx[14].nic.pdcpRrc  receivedPacketFromUpperLayer:vector(packetBytes)  ETV
attr interpolationmode  none
attr source  receivedPacketFromUpperLayer
vector 656  CAIN.ueD2DTx[14].nic.pdcpRrc  sentPacketToLowerLayer:vector(packetBytes)  ETV
attr interpolationmode  none
attr source  sentPacketToLowerLayer
vector 657  CAIN.ueD2DTx[14].nic.mac  receivedPacketFromUpperLayer:vector(packetBytes)  ETV
attr interpolationmode  none
attr source  receivedPacketFromUpperLayer
vector 667  CAIN.ueD2DTx[14].nic.mac  CainHopMessageSent:vector  ETV
attr interpolationmode  none
attr title  "# of Sent CAIN hop message, vector"
vector 660  CAIN.ueD2DTx[14].nic.mac  sentPacketToLowerLayer:vector(packetBytes)  ETV
attr interpolationmode  none
attr source  sentPacketToLowerLayer
vector 498  CAIN.ueD2DTx[9].nic.mac  receivedPacketFromLowerLayer:vector(packetBytes)  ETV
attr interpolationmode  none
attr source  receivedPacketFromLowerLayer
vector 467  CAIN.ueD2DTx[8].nic.mac  sentPacketToUpperLayer:vector(packetBytes)  ETV
attr interpolationmode  none
attr source  sentPacketToUpperLayer
vector 499  CAIN.ueD2DTx[9].nic.mac  sentPacketToUpperLayer:vector(packetBytes)  ETV
attr interpolationmode  none
attr source  sentPacketToUpperLayer
vector 108  CAIN.eNodeB.nic.mac  ServedDevs:vector  ETV
attr interpolationmode  none
attr title  "# of devices served on cain forwarding, vector"
vector 1301  CAIN.eNodeB1.sctp  "SendQueue of Association 5"  ETV
vector 1065  CAIN.eNodeB1.sctp  "TSN Sent 5:10.0.5.1"  ETV
vector 1072  CAIN.eNodeB1.sctp  "Outstanding Bytes 5:10.0.5.1"  ETV
vector 870  CAIN.eNodeB1.sctp  "Outstanding Bytes 4:Total"  ETV
vector 1071  CAIN.eNodeB1.sctp  "Queued Sent Bytes 5:10.0.5.1"  ETV
vector 869  CAIN.eNodeB1.sctp  "Queued Sent Bytes 4:Total"  ETV
vector 914  CAIN.eNodeB.sctp  "TSN Received 1:10.0.5.2"  ETV
vector 890  CAIN.eNodeB.sctp  "Queued Received Bytes 1:Total"  ETV
vector 886  CAIN.eNodeB.sctp  "Advertised Receiver Window 1"  ETV
vector 895  CAIN.eNodeB.sctp  "Number of Total Gap Blocks Stored 1"  ETV
vector 896  CAIN.eNodeB.sctp  "Number of Revokable Gap Blocks Stored 1"  ETV
vector 897  CAIN.eNodeB.sctp  "Number of Non-Revokable Gap Blocks Stored 1"  ETV
vector 898  CAIN.eNodeB.sctp  "Number of Duplicate TSNs Stored 1"  ETV
vector 902  CAIN.eNodeB.sctp  "Length of SACK Sent 1"  ETV
vector 899  CAIN.eNodeB.sctp  "Number of Revokable Gap Blocks Sent 1"  ETV
vector 900  CAIN.eNodeB.sctp  "Number of Non-Revokable Gap Blocks Sent 1"  ETV
vector 901  CAIN.eNodeB.sctp  "Number of Duplicate TSNs Sent 1"  ETV
vector 906  CAIN.eNodeB.sctp  "End to End Delay of Association 1"  ETV
vector 141  CAIN.eNodeB.x2App[0].client  rcvdPk:vector(packetBytes)  ETV
attr interpolationmode  none
attr source  rcvdPk
attr title  "packets received, vector(packetBytes)"
vector 1300  CAIN.eNodeB1.sctp  "Number of Gap Blocks in Last SACK of Association 5"  ETV
vector 871  CAIN.eNodeB1.sctp  "Number of Revokable Gap Blocks in SACK 4"  ETV
vector 872  CAIN.eNodeB1.sctp  "Number of Non-Revokable Gap Blocks in SACK 4"  ETV
vector 1082  CAIN.eNodeB1.sctp  "TSN Acked CumAck 5:10.0.5.1"  ETV
vector 1048  CAIN.eNodeB1.sctp  "Number of Gap Acked Chunks in Last SACK 5:10.0.2.2"  ETV
vector 1049  CAIN.eNodeB1.sctp  "Number of Non-Revokable Gap Acked Chunks in Last SACK 5:10.0.2.2"  ETV
vector 1050  CAIN.eNodeB1.sctp  "Number of Gap Missed Chunks in Last SACK 5:10.0.2.2"  ETV
vector 1021  CAIN.eNodeB1.sctp  "Number of Gap Acked Chunks in Last SACK 5:10.0.4.1"  ETV
vector 1022  CAIN.eNodeB1.sctp  "Number of Non-Revokable Gap Acked Chunks in Last SACK 5:10.0.4.1"  ETV
vector 1023  CAIN.eNodeB1.sctp  "Number of Gap Missed Chunks in Last SACK 5:10.0.4.1"  ETV
vector 1075  CAIN.eNodeB1.sctp  "Number of Gap Acked Chunks in Last SACK 5:10.0.5.1"  ETV
vector 1076  CAIN.eNodeB1.sctp  "Number of Non-Revokable Gap Acked Chunks in Last SACK 5:10.0.5.1"  ETV
vector 1077  CAIN.eNodeB1.sctp  "Number of Gap Missed Chunks in Last SACK 5:10.0.5.1"  ETV
vector 881  CAIN.eNodeB1.sctp  "Arwnd in Last SACK 4"  ETV
vector 1084  CAIN.eNodeB1.sctp  "TSN PseudoCumAck 5:10.0.5.1"  ETV
vector 1085  CAIN.eNodeB1.sctp  "TSN RTXPseudoCumAck 5:10.0.5.1"  ETV
vector 1078  CAIN.eNodeB1.sctp  "Partial Bytes Acked 5:10.0.5.1"  ETV
vector 1525  CAIN.ueD2DTx[4].tcp  tcpRcvQueueBytes  ETV
vector 1512  CAIN.ueD2DTx[4].tcp  "advertised window"  ETV
vector 1511  CAIN.ueD2DTx[4].tcp  "receive window"  ETV
vector 1514  CAIN.ueD2DTx[4].tcp  "sent ack"  ETV
vector 333  CAIN.ueD2DTx[4].nic.pdcpRrc  receivedPacketFromUpperLayer:vector(packetBytes)  ETV
attr interpolationmode  none
attr source  receivedPacketFromUpperLayer
vector 336  CAIN.ueD2DTx[4].nic.pdcpRrc  sentPacketToLowerLayer:vector(packetBytes)  ETV
attr interpolationmode  none
attr source  sentPacketToLowerLayer
vector 337  CAIN.ueD2DTx[4].nic.mac  receivedPacketFromUpperLayer:vector(packetBytes)  ETV
attr interpolationmode  none
attr source  receivedPacketFromUpperLayer
vector 347  CAIN.ueD2DTx[4].nic.mac  CainHopMessageSent:vector  ETV
attr interpolationmode  none
attr title  "# of Sent CAIN hop message, vector"
vector 340  CAIN.ueD2DTx[4].nic.mac  sentPacketToLowerLayer:vector(packetBytes)  ETV
attr interpolationmode  none
attr source  sentPacketToLowerLayer
vector 154  CAIN.eNodeB1.nic.mac  receivedPacketFromLowerLayer:vector(packetBytes)  ETV
attr interpolationmode  none
attr source  receivedPacketFromLowerLayer
vector 1549  CAIN.ueD2DTx[6].tcp  tcpRcvQueueBytes  ETV
vector 1536  CAIN.ueD2DTx[6].tcp  "advertised window"  ETV
vector 1535  CAIN.ueD2DTx[6].tcp  "receive window"  ETV
vector 1538  CAIN.ueD2DTx[6].tcp  "sent ack"  ETV
vector 397  CAIN.ueD2DTx[6].nic.pdcpRrc  receivedPacketFromUpperLayer:vector(packetBytes)  ETV
attr interpolationmode  none
attr source  receivedPacketFromUpperLayer
vector 400  CAIN.ueD2DTx[6].nic.pdcpRrc  sentPacketToLowerLayer:vector(packetBytes)  ETV
attr interpolationmode  none
attr source  sentPacketToLowerLayer
vector 401  CAIN.ueD2DTx[6].nic.mac  receivedPacketFromUpperLayer:vector(packetBytes)  ETV
attr interpolationmode  none
attr source  receivedPacketFromUpperLayer
vector 410  CAIN.ueD2DTx[6].nic.mac  CainMessageSent:vector  ETV
attr interpolationmode  none
attr title  "# of Sent CAIN message, vector"
vector 404  CAIN.ueD2DTx[6].nic.mac  sentPacketToLowerLayer:vector(packetBytes)  ETV
attr interpolationmode  none
attr source  sentPacketToLowerLayer
vector 1573  CAIN.ueD2DTx[13].tcp  tcpRcvQueueBytes  ETV
vector 1560  CAIN.ueD2DTx[13].tcp  "advertised window"  ETV
vector 1559  CAIN.ueD2DTx[13].tcp  "receive window"  ETV
vector 1562  CAIN.ueD2DTx[13].tcp  "sent ack"  ETV
vector 621  CAIN.ueD2DTx[13].nic.pdcpRrc  receivedPacketFromUpperLayer:vector(packetBytes)  ETV
attr interpolationmode  none
attr source  receivedPacketFromUpperLayer
vector 624  CAIN.ueD2DTx[13].nic.pdcpRrc  sentPacketToLowerLayer:vector(packetBytes)  ETV
attr interpolationmode  none
attr source  sentPacketToLowerLayer
vector 625  CAIN.ueD2DTx[13].nic.mac  receivedPacketFromUpperLayer:vector(packetBytes)  ETV
attr interpolationmode  none
attr source  receivedPacketFromUpperLayer
vector 628  CAIN.ueD2DTx[13].nic.mac  sentPacketToLowerLayer:vector(packetBytes)  ETV
attr interpolationmode  none
attr source  sentPacketToLowerLayer
vector 1597  CAIN.ueD2DTx[11].tcp  tcpRcvQueueBytes  ETV
vector 1584  CAIN.ueD2DTx[11].tcp  "advertised window"  ETV
vector 1583  CAIN.ueD2DTx[11].tcp  "receive window"  ETV
vector 1586  CAIN.ueD2DTx[11].tcp  "sent ack"  ETV
vector 557  CAIN.ueD2DTx[11].nic.pdcpRrc  receivedPacketFromUpperLayer:vector(packetBytes)  ETV
attr interpolationmode  none
attr source  receivedPacketFromUpperLayer
vector 560  CAIN.ueD2DTx[11].nic.pdcpRrc  sentPacketToLowerLayer:vector(packetBytes)  ETV
attr interpolationmode  none
attr source  sentPacketToLowerLayer
vector 561  CAIN.ueD2DTx[11].nic.mac  receivedPacketFromUpperLayer:vector(packetBytes)  ETV
attr interpolationmode  none
attr source  receivedPacketFromUpperLayer
vector 564  CAIN.ueD2DTx[11].nic.mac  sentPacketToLowerLayer:vector(packetBytes)  ETV
attr interpolationmode  none
attr source  sentPacketToLowerLayer
vector 169  CAIN.eNodeB1.nic.mac  racpkt:vector  ETV
attr interpolationmode  none
attr title  "eNB received racpkt message, vector"
vector 170  CAIN.eNodeB1.nic.mac  racDistanceSignal:vector  ETV
attr interpolationmode  none
attr title  "Rac distance to enb, vector"
vector 171  CAIN.eNodeB1.nic.mac  racServedDevsSignal:vector  ETV
attr interpolationmode  none
attr title  "# of devices served on rac arriavall, vector"
vector 156  CAIN.eNodeB1.nic.mac  sentPacketToLowerLayer:vector(packetBytes)  ETV
attr interpolationmode  none
attr source  sentPacketToLowerLayer
vector 626  CAIN.ueD2DTx[13].nic.mac  receivedPacketFromLowerLayer:vector(packetBytes)  ETV
attr interpolationmode  none
attr source  receivedPacketFromLowerLayer
vector 1621  CAIN.ueD2DTx[1].tcp  tcpRcvQueueBytes  ETV
vector 1608  CAIN.ueD2DTx[1].tcp  "advertised window"  ETV
vector 1607  CAIN.ueD2DTx[1].tcp  "receive window"  ETV
vector 1610  CAIN.ueD2DTx[1].tcp  "sent ack"  ETV
vector 237  CAIN.ueD2DTx[1].nic.pdcpRrc  receivedPacketFromUpperLayer:vector(packetBytes)  ETV
attr interpolationmode  none
attr source  receivedPacketFromUpperLayer
vector 240  CAIN.ueD2DTx[1].nic.pdcpRrc  sentPacketToLowerLayer:vector(packetBytes)  ETV
attr interpolationmode  none
attr source  sentPacketToLowerLayer
vector 241  CAIN.ueD2DTx[1].nic.mac  receivedPacketFromUpperLayer:vector(packetBytes)  ETV
attr interpolationmode  none
attr source  receivedPacketFromUpperLayer
vector 562  CAIN.ueD2DTx[11].nic.mac  receivedPacketFromLowerLayer:vector(packetBytes)  ETV
attr interpolationmode  none
attr source  receivedPacketFromLowerLayer
vector 1645  CAIN.ueD2DTx[15].tcp  tcpRcvQueueBytes  ETV
vector 1632  CAIN.ueD2DTx[15].tcp  "advertised window"  ETV
vector 1631  CAIN.ueD2DTx[15].tcp  "receive window"  ETV
vector 1634  CAIN.ueD2DTx[15].tcp  "sent ack"  ETV
vector 685  CAIN.ueD2DTx[15].nic.pdcpRrc  receivedPacketFromUpperLayer:vector(packetBytes)  ETV
attr interpolationmode  none
attr source  receivedPacketFromUpperLayer
vector 688  CAIN.ueD2DTx[15].nic.pdcpRrc  sentPacketToLowerLayer:vector(packetBytes)  ETV
attr interpolationmode  none
attr source  sentPacketToLowerLayer
vector 689  CAIN.ueD2DTx[15].nic.mac  receivedPacketFromUpperLayer:vector(packetBytes)  ETV
attr interpolationmode  none
attr source  receivedPacketFromUpperLayer
vector 692  CAIN.ueD2DTx[15].nic.mac  sentPacketToLowerLayer:vector(packetBytes)  ETV
attr interpolationmode  none
attr source  sentPacketToLowerLayer
vector 563  CAIN.ueD2DTx[11].nic.mac  sentPacketToUpperLayer:vector(packetBytes)  ETV
attr interpolationmode  none
attr source  sentPacketToUpperLayer
vector 690  CAIN.ueD2DTx[15].nic.mac  receivedPacketFromLowerLayer:vector(packetBytes)  ETV
attr interpolationmode  none
attr source  receivedPacketFromLowerLayer
vector 243  CAIN.ueD2DTx[1].nic.mac  sentPacketToUpperLayer:vector(packetBytes)  ETV
attr interpolationmode  none
attr source  sentPacketToUpperLayer
vector 1669  CAIN.ueD2DTx[5].tcp  tcpRcvQueueBytes  ETV
vector 1656  CAIN.ueD2DTx[5].tcp  "advertised window"  ETV
vector 1655  CAIN.ueD2DTx[5].tcp  "receive window"  ETV
vector 1658  CAIN.ueD2DTx[5].tcp  "sent ack"  ETV
vector 365  CAIN.ueD2DTx[5].nic.pdcpRrc  receivedPacketFromUpperLayer:vector(packetBytes)  ETV
attr interpolationmode  none
attr source  receivedPacketFromUpperLayer
vector 368  CAIN.ueD2DTx[5].nic.pdcpRrc  sentPacketToLowerLayer:vector(packetBytes)  ETV
attr interpolationmode  none
attr source  sentPacketToLowerLayer
vector 369  CAIN.ueD2DTx[5].nic.mac  receivedPacketFromUpperLayer:vector(packetBytes)  ETV
attr interpolationmode  none
attr source  receivedPacketFromUpperLayer
vector 1693  CAIN.ueD2DTx[12].tcp  tcpRcvQueueBytes  ETV
vector 1680  CAIN.ueD2DTx[12].tcp  "advertised window"  ETV
vector 1679  CAIN.ueD2DTx[12].tcp  "receive window"  ETV
vector 1682  CAIN.ueD2DTx[12].tcp  "sent ack"  ETV
vector 589  CAIN.ueD2DTx[12].nic.pdcpRrc  receivedPacketFromUpperLayer:vector(packetBytes)  ETV
attr interpolationmode  none
attr source  receivedPacketFromUpperLayer
vector 592  CAIN.ueD2DTx[12].nic.pdcpRrc  sentPacketToLowerLayer:vector(packetBytes)  ETV
attr interpolationmode  none
attr source  sentPacketToLowerLayer
vector 593  CAIN.ueD2DTx[12].nic.mac  receivedPacketFromUpperLayer:vector(packetBytes)  ETV
attr interpolationmode  none
attr source  receivedPacketFromUpperLayer
vector 1717  CAIN.ueD2DTx[0].tcp  tcpRcvQueueBytes  ETV
vector 1704  CAIN.ueD2DTx[0].tcp  "advertised window"  ETV
vector 1703  CAIN.ueD2DTx[0].tcp  "receive window"  ETV
vector 1706  CAIN.ueD2DTx[0].tcp  "sent ack"  ETV
vector 205  CAIN.ueD2DTx[0].nic.pdcpRrc  receivedPacketFromUpperLayer:vector(packetBytes)  ETV
attr interpolationmode  none
attr source  receivedPacketFromUpperLayer
vector 208  CAIN.ueD2DTx[0].nic.pdcpRrc  sentPacketToLowerLayer:vector(packetBytes)  ETV
attr interpolationmode  none
attr source  sentPacketToLowerLayer
vector 209  CAIN.ueD2DTx[0].nic.mac  receivedPacketFromUpperLayer:vector(packetBytes)  ETV
attr interpolationmode  none
attr source  receivedPacketFromUpperLayer
vector 212  CAIN.ueD2DTx[0].nic.mac  sentPacketToLowerLayer:vector(packetBytes)  ETV
attr interpolationmode  none
attr source  sentPacketToLowerLayer
vector 1741  CAIN.ueD2DTx[17].tcp  tcpRcvQueueBytes  ETV
vector 1728  CAIN.ueD2DTx[17].tcp  "advertised window"  ETV
vector 1727  CAIN.ueD2DTx[17].tcp  "receive window"  ETV
vector 1730  CAIN.ueD2DTx[17].tcp  "sent ack"  ETV
vector 749  CAIN.ueD2DTx[17].nic.pdcpRrc  receivedPacketFromUpperLayer:vector(packetBytes)  ETV
attr interpolationmode  none
attr source  receivedPacketFromUpperLayer
vector 752  CAIN.ueD2DTx[17].nic.pdcpRrc  sentPacketToLowerLayer:vector(packetBytes)  ETV
attr interpolationmode  none
attr source  sentPacketToLowerLayer
vector 753  CAIN.ueD2DTx[17].nic.mac  receivedPacketFromUpperLayer:vector(packetBytes)  ETV
attr interpolationmode  none
attr source  receivedPacketFromUpperLayer
vector 210  CAIN.ueD2DTx[0].nic.mac  receivedPacketFromLowerLayer:vector(packetBytes)  ETV
attr interpolationmode  none
attr source  receivedPacketFromLowerLayer
vector 115  CAIN.eNodeB.nic.phy  averageCqiUlvect:vector  ETV
attr source  averageCqiUlvect
attr title  "Average Cqi reported in UL, vector"
attr unit  cqi
vector 1765  CAIN.ueD2DTx[2].tcp  tcpRcvQueueBytes  ETV
vector 1752  CAIN.ueD2DTx[2].tcp  "advertised window"  ETV
vector 1751  CAIN.ueD2DTx[2].tcp  "receive window"  ETV
vector 1754  CAIN.ueD2DTx[2].tcp  "sent ack"  ETV
vector 269  CAIN.ueD2DTx[2].nic.pdcpRrc  receivedPacketFromUpperLayer:vector(packetBytes)  ETV
attr interpolationmode  none
attr source  receivedPacketFromUpperLayer
vector 272  CAIN.ueD2DTx[2].nic.pdcpRrc  sentPacketToLowerLayer:vector(packetBytes)  ETV
attr interpolationmode  none
attr source  sentPacketToLowerLayer
vector 273  CAIN.ueD2DTx[2].nic.mac  receivedPacketFromUpperLayer:vector(packetBytes)  ETV
attr interpolationmode  none
attr source  receivedPacketFromUpperLayer
vector 276  CAIN.ueD2DTx[2].nic.mac  sentPacketToLowerLayer:vector(packetBytes)  ETV
attr interpolationmode  none
attr source  sentPacketToLowerLayer
vector 274  CAIN.ueD2DTx[2].nic.mac  receivedPacketFromLowerLayer:vector(packetBytes)  ETV
attr interpolationmode  none
attr source  receivedPacketFromLowerLayer
vector 1789  CAIN.ueD2DTx[19].tcp  tcpRcvQueueBytes  ETV
vector 1776  CAIN.ueD2DTx[19].tcp  "advertised window"  ETV
vector 1775  CAIN.ueD2DTx[19].tcp  "receive window"  ETV
vector 1778  CAIN.ueD2DTx[19].tcp  "sent ack"  ETV
vector 813  CAIN.ueD2DTx[19].nic.pdcpRrc  receivedPacketFromUpperLayer:vector(packetBytes)  ETV
attr interpolationmode  none
attr source  receivedPacketFromUpperLayer
vector 816  CAIN.ueD2DTx[19].nic.pdcpRrc  sentPacketToLowerLayer:vector(packetBytes)  ETV
attr interpolationmode  none
attr source  sentPacketToLowerLayer
vector 817  CAIN.ueD2DTx[19].nic.mac  receivedPacketFromUpperLayer:vector(packetBytes)  ETV
attr interpolationmode  none
attr source  receivedPacketFromUpperLayer
vector 275  CAIN.ueD2DTx[2].nic.mac  sentPacketToUpperLayer:vector(packetBytes)  ETV
attr interpolationmode  none
attr source  sentPacketToUpperLayer
vector 820  CAIN.ueD2DTx[19].nic.mac  sentPacketToLowerLayer:vector(packetBytes)  ETV
attr interpolationmode  none
attr source  sentPacketToLowerLayer
vector 818  CAIN.ueD2DTx[19].nic.mac  receivedPacketFromLowerLayer:vector(packetBytes)  ETV
attr interpolationmode  none
attr source  receivedPacketFromLowerLayer
vector 218  CAIN.ueD2DTx[0].nic.mac  CainMessageSent:vector  ETV
attr interpolationmode  none
attr title  "# of Sent CAIN message, vector"
vector 827  CAIN.ueD2DTx[19].nic.mac  CainHopMessageSent:vector  ETV
attr interpolationmode  none
attr title  "# of Sent CAIN hop message, vector"
vector 109  CAIN.eNodeB.nic.mac  ServedHopDevs:vector  ETV
attr interpolationmode  none
attr title  "# of devices served on hop forwarding, vector"
vector 594  CAIN.ueD2DTx[12].nic.mac  receivedPacketFromLowerLayer:vector(packetBytes)  ETV
attr interpolationmode  none
attr source  receivedPacketFromLowerLayer
vector 596  CAIN.ueD2DTx[12].nic.mac  sentPacketToLowerLayer:vector(packetBytes)  ETV
attr interpolationmode  none
attr source  sentPacketToLowerLayer
vector 722  CAIN.ueD2DTx[16].nic.mac  receivedPacketFromLowerLayer:vector(packetBytes)  ETV
attr interpolationmode  none
attr source  receivedPacketFromLowerLayer
vector 723  CAIN.ueD2DTx[16].nic.mac  sentPacketToUpperLayer:vector(packetBytes)  ETV
attr interpolationmode  none
attr source  sentPacketToUpperLayer
vector 786  CAIN.ueD2DTx[18].nic.mac  receivedPacketFromLowerLayer:vector(packetBytes)  ETV
attr interpolationmode  none
attr source  receivedPacketFromLowerLayer
vector 787  CAIN.ueD2DTx[18].nic.mac  sentPacketToUpperLayer:vector(packetBytes)  ETV
attr interpolationmode  none
attr source  sentPacketToUpperLayer
vector 658  CAIN.ueD2DTx[14].nic.mac  receivedPacketFromLowerLayer:vector(packetBytes)  ETV
attr interpolationmode  none
attr source  receivedPacketFromLowerLayer
vector 659  CAIN.ueD2DTx[14].nic.mac  sentPacketToUpperLayer:vector(packetBytes)  ETV
attr interpolationmode  none
attr source  sentPacketToUpperLayer
vector 627  CAIN.ueD2DTx[13].nic.mac  sentPacketToUpperLayer:vector(packetBytes)  ETV
attr interpolationmode  none
attr source  sentPacketToUpperLayer
vector 691  CAIN.ueD2DTx[15].nic.mac  sentPacketToUpperLayer:vector(packetBytes)  ETV
attr interpolationmode  none
attr source  sentPacketToUpperLayer
vector 379  CAIN.ueD2DTx[5].nic.mac  CainHopMessageSent:vector  ETV
attr interpolationmode  none
attr title  "# of Sent CAIN hop message, vector"
vector 372  CAIN.ueD2DTx[5].nic.mac  sentPacketToLowerLayer:vector(packetBytes)  ETV
attr interpolationmode  none
attr source  sentPacketToLowerLayer
vector 602  CAIN.ueD2DTx[12].nic.mac  CainMessageSent:vector  ETV
attr interpolationmode  none
attr title  "# of Sent CAIN message, vector"
vector 755  CAIN.ueD2DTx[17].nic.mac  sentPacketToUpperLayer:vector(packetBytes)  ETV
attr interpolationmode  none
attr source  sentPacketToUpperLayer
1108	49870 24 150 150 0.0000001228 0.0000001228 1 0 0 0 0
1219	49894 28 235 235 0.0000006304 0.0000006304 1 65535 65535 65535 4294836225
1220	49922 27 235 235 0.0000006304 0.0000006304 1 8940 8940 8940 79923600
1221	49949 29 235 235 0.0000006304 0.0000006304 1 0.3725 0.3725 0.3725 0.13875625
1217	49978 24 235 235 0.0000006304 0.0000006304 1 3 3 3 9
1224	50002 24 235 235 0.0000006304 0.0000006304 1 1 1 1 1
1236	50026 24 163 163 0.0000003096 0.0000003096 1 0 0 0 0
1192	50050 28 235 235 0.0000006304 0.0000006304 1 65535 65535 65535 4294836225
1193	50078 27 235 235 0.0000006304 0.0000006304 1 8940 8940 8940 79923600
1194	50105 29 235 235 0.0000006304 0.0000006304 1 0.3725 0.3725 0.3725 0.13875625
1190	50134 24 235 235 0.0000006304 0.0000006304 1 3 3 3 9
1197	50158 24 235 235 0.0000006304 0.0000006304 1 1 1 1 1
1209	50182 24 163 163 0.0000003096 0.0000003096 1 0 0 0 0
910	50206 27 235 235 0.0000006304 0.0000006304 1 65535 65535 65535 4294836225
911	50233 26 235 235 0.0000006304 0.0000006304 1 8940 8940 8940 79923600
912	50259 28 235 235 0.0000006304 0.0000006304 1 0.3725 0.3725 0.3725 0.13875625
908	50287 46 235 302 0.0000006304 0.0000008564 2 1 3 4 10
909	50333 30 302 302 0.0000008564 0.0000008564 1 2.26e-07 2.26e-07 2.26e-07 5.1076e-14
914	50363 2510 3301 16236 0.0570000972 0.2570018716 90 2000 2089 184005 376258965
917	52873 44 207 221 0.000000552 0.000000596 2 1 2 3 5
916	52917 44 207 221 0.000000552 0.000000596 2 1 2 3 5
918	52961 46 302 308 0.0000008564 0.0000009004 2 1 2 3 5
927	53007 12 131 131 0 0 1 0 0 0 0
886	53019 86 3301 28864 0.0570000972 0.4570018716 3 65533 65535 196603 12884246539
890	53105 2317 3301 28864 0.0570000972 0.4570018716 93 0 160 182 25932
895	55422 74 3301 28864 0.0570000972 0.4570018716 3 0 0 0 0
896	55496 74 3301 28864 0.0570000972 0.4570018716 3 0 0 0 0
897	55570 74 3301 28864 0.0570000972 0.4570018716 3 0 0 0 0
898	55644 74 3301 28864 0.0570000972 0.4570018716 3 0 0 0 0
899	55718 74 3301 28864 0.0570000972 0.4570018716 3 0 0 0 0
900	55792 74 3301 28864 0.0570000972 0.4570018716 3 0 0 0 0
901	55866 74 3301 28864 0.0570000972 0.4570018716 3 0 0 0 0
902	55940 77 3301 28864 0.0570000972 0.4570018716 3 16 16 48 768
904	56017 27 163 163 0.0000003096 0.0000003096 1 65535 65535 65535 4294836225
906	56044 3039 3304 16317 0.0570000972 0.2570018716 90 9.72e-08 1.3612e-06 0.00011102 1.486951184e-10
907	59083 12 131 131 0 0 1 0 0 0 0
1138	59095 27 178 178 0.000000458 0.000000458 1 65535 65535 65535 4294836225
1139	59122 26 178 178 0.000000458 0.000000458 1 8940 8940 8940 79923600
1140	59148 28 178 178 0.000000458 0.000000458 1 0.3725 0.3725 0.3725 0.13875625
1136	59176 23 178 178 0.000000458 0.000000458 1 3 3 3 9
1143	59199 23 178 178 0.000000458 0.000000458 1 1 1 1 1
1151	59222 76 645 25804 0.0070001912 0.4070019656 3 0 0 0 0
1152	59298 76 645 25804 0.0070001912 0.4070019656 3 0 0 0 0
1153	59374 76 645 25804 0.0070001912 0.4070019656 3 0 0 0 0
1155	59450 24 150 150 0.0000001228 0.0000001228 1 0 0 0 0
1111	59474 27 178 178 0.000000458 0.000000458 1 65535 65535 65535 4294836225
1112	59501 26 178 178 0.000000458 0.000000458 1 8940 8940 8940 79923600
1113	59527 28 178 178 0.000000458 0.000000458 1 0.3725 0.3725 0.3725 0.13875625
1109	59555 23 178 178 0.000000458 0.000000458 1 3 3 3 9
1116	59578 23 178 178 0.000000458 0.000000458 1 1 1 1 1
1124	59601 76 645 25804 0.0070001912 0.4070019656 3 0 0 0 0
1125	59677 76 645 25804 0.0070001912 0.4070019656 3 0 0 0 0
1126	59753 76 645 25804 0.0070001912 0.4070019656 3 0 0 0 0
1128	59829 24 150 150 0.0000001228 0.0000001228 1 0 0 0 0
1165	59853 57 178 74672 0.000000458 1.2070005104 2 65535 65535 131070 8589672450
1166	59910 55 178 74672 0.000000458 1.2070005104 2 8940 8940 17880 159847200
1167	59965 58 178 74672 0.000000458 1.2070005104 2 0.3725 23.84 24.2125 568.48435625
1163	60023 123 178 25804 0.000000458 0.4070019656 5 1 3 7 13
1164	60146 138 255 25804 0.0000006744 0.4070019656 4 1.912e-07 0.2000014552 0.400002182 0.080000709762303
1168	60284 2583 593 12789 0.007 0.2070005104 90 2000 2089 184005 376258965
1172	62867 48 273 287 0.0000007624 0.0000008064 2 1 2 3 5
1171	62915 48 273 287 0.0000007624 0.0000008064 2 1 2 3 5
1173	62963 48 255 265 0.0000006744 0.0000007184 2 1 2 3 5
1174	63011 4872 593 25804 0.007 0.4070019656 180 0 160 12964 1367400
1175	67883 4872 593 25804 0.007 0.4070019656 180 0 160 12964 1367400
1178	72755 76 645 25804 0.0070001912 0.4070019656 3 0 0 0 0
1179	72831 76 645 25804 0.0070001912 0.4070019656 3 0 0 0 0
1180	72907 76 645 25804 0.0070001912 0.4070019656 3 0 0 0 0
1181	72983 76 645 25804 0.0070001912 0.4070019656 3 0 0 0 0
1182	73059 24 150 150 0.0000001228 0.0000001228 1 0 0 0 0
1185	73083 85 645 25804 0.0070001912 0.4070019656 3 2000 2089 6098 12400002
1187	73168 76 645 25804 0.0070001912 0.4070019656 3 0 0 0 0
1188	73244 76 645 25804 0.0070001912 0.4070019656 3 0 0 0 0
1304	73320 76 645 25804 0.0070001912 0.4070019656 3 0 0 0 0
1305	73396 4054 593 12789 0.007 0.2070005104 180 0 80 6482 341850
848	77450 4692 593 25804 0.007 0.4070019656 180 0 160 12964 1367400
847	82142 4692 593 25804 0.007 0.4070019656 180 0 160 12964 1367400
849	86834 73 645 25804 0.0070001912 0.4070019656 3 0 0 0 0
850	86907 73 645 25804 0.0070001912 0.4070019656 3 0 0 0 0
859	86980 85 645 25804 0.0070001912 0.4070019656 3 65533 65535 196603 12884246539
860	87065 112 150 25804 0.0000001228 0.4070019656 4 65533 65535 262138 17179082764
863	87177 12 123 123 0 0 1 0 0 0 0
1005	87189 24 149 149 0.0000001228 0.0000001228 1 0 0 0 0
1273	87213 28 236 236 0.0000006304 0.0000006304 1 65535 65535 65535 4294836225
1274	87241 27 236 236 0.0000006304 0.0000006304 1 8940 8940 8940 79923600
1275	87268 29 236 236 0.0000006304 0.0000006304 1 0.3725 0.3725 0.3725 0.13875625
1271	87297 24 236 236 0.0000006304 0.0000006304 1 3 3 3 9
1278	87321 24 236 236 0.0000006304 0.0000006304 1 1 1 1 1
1290	87345 24 164 164 0.0000003096 0.0000003096 1 0 0 0 0
1246	87369 28 236 236 0.0000006304 0.0000006304 1 65535 65535 65535 4294836225
1247	87397 27 236 236 0.0000006304 0.0000006304 1 8940 8940 8940 79923600
1248	87424 29 236 236 0.0000006304 0.0000006304 1 0.3725 0.3725 0.3725 0.13875625
1244	87453 24 236 236 0.0000006304 0.0000006304 1 3 3 3 9
1251	87477 24 236 236 0.0000006304 0.0000006304 1 1 1 1 1
1263	87501 24 164 164 0.0000003096 0.0000003096 1 0 0 0 0
959	87525 27 236 236 0.0000006304 0.0000006304 1 65535 65535 65535 4294836225
960	87552 26 236 236 0.0000006304 0.0000006304 1 8940 8940 8940 79923600
961	87578 28 236 236 0.0000006304 0.0000006304 1 0.3725 0.3725 0.3725 0.13875625
957	87606 46 236 301 0.0000006304 0.0000008564 2 1 3 4 10
958	87652 30 301 301 0.0000008564 0.0000008564 1 2.26e-07 2.26e-07 2.26e-07 5.1076e-14
963	87682 2500 633 12796 0.0070000972 0.2070018716 90 2000 2089 184005 376258965
966	90182 44 208 222 0.000000552 0.000000596 2 1 2 3 5
965	90226 44 208 222 0.000000552 0.000000596 2 1 2 3 5
967	90270 46 301 307 0.0000008564 0.0000009004 2 1 2 3 5
976	90316 12 132 132 0 0 1 0 0 0 0
935	90328 85 633 25797 0.0070000972 0.4070018716 3 65533 65535 196603 12884246539
939	90413 2306 633 25797 0.0070000972 0.4070018716 93 0 160 182 25932
944	92719 73 633 25797 0.0070000972 0.4070018716 3 0 0 0 0
945	92792 73 633 25797 0.0070000972 0.4070018716 3 0 0 0 0
946	92865 73 633 25797 0.0070000972 0.4070018716 3 0 0 0 0
947	92938 73 633 25797 0.0070000972 0.4070018716 3 0 0 0 0
948	93011 73 633 25797 0.0070000972 0.4070018716 3 0 0 0 0
949	93084 73 633 25797 0.0070000972 0.4070018716 3 0 0 0 0
950	93157 73 633 25797 0.0070000972 0.4070018716 3 0 0 0 0
951	93230 76 633 25797 0.0070000972 0.4070018716 3 16 16 48 768
953	93306 27 164 164 0.0000003096 0.0000003096 1 65535 65535 65535 4294836225
955	93333 3029 636 12877 0.0070000972 0.2070018716 90 9.72e-08 1.3612e-06 0.00011102 1.486951184e-10
956	96362 12 132 132 0 0 1 0 0 0 0
1035	96374 27 177 177 0.000000458 0.000000458 1 65535 65535 65535 4294836225
1036	96401 26 177 177 0.000000458 0.000000458 1 8940 8940 8940 79923600
1037	96427 28 177 177 0.000000458 0.000000458 1 0.3725 0.3725 0.3725 0.13875625
1033	96455 23 177 177 0.000000458 0.000000458 1 3 3 3 9
1040	96478 23 177 177 0.000000458 0.000000458 1 1 1 1 1
1048	96501 77 3313 28871 0.0570001912 0.4570019656 3 0 0 0 0
1049	96578 77 3313 28871 0.0570001912 0.4570019656 3 0 0 0 0
1050	96655 77 3313 28871 0.0570001912 0.4570019656 3 0 0 0 0
1052	96732 24 149 149 0.0000001228 0.0000001228 1 0 0 0 0
1008	96756 27 177 177 0.000000458 0.000000458 1 65535 65535 65535 4294836225
1009	96783 26 177 177 0.000000458 0.000000458 1 8940 8940 8940 79923600
1010	96809 28 177 177 0.000000458 0.000000458 1 0.3725 0.3725 0.3725 0.13875625
1006	96837 23 177 177 0.000000458 0.000000458 1 3 3 3 9
1013	96860 23 177 177 0.000000458 0.000000458 1 1 1 1 1
1021	96883 77 3313 28871 0.0570001912 0.4570019656 3 0 0 0 0
1022	96960 77 3313 28871 0.0570001912 0.4570019656 3 0 0 0 0
1023	97037 77 3313 28871 0.0570001912 0.4570019656 3 0 0 0 0
1025	97114 24 149 149 0.0000001228 0.0000001228 1 0 0 0 0
1062	97138 57 177 77749 0.000000458 1.2570005104 2 65535 65535 131070 8589672450
1063	97195 55 177 77749 0.000000458 1.2570005104 2 8940 8940 17880 159847200
1064	97250 58 177 77749 0.000000458 1.2570005104 2 0.3725 23.84 24.2125 568.48435625
1060	97308 124 177 28871 0.000000458 0.4570019656 5 1 3 7 13
1061	97432 139 256 28871 0.0000006744 0.4570019656 4 1.912e-07 0.2000014552 0.400002182 0.080000709762303
1065	97571 2593 3234 16229 0.057 0.2570005104 90 2000 2089 184005 376258965
1069	100164 48 274 288 0.0000007624 0.0000008064 2 1 2 3 5
1068	100212 48 274 288 0.0000007624 0.0000008064 2 1 2 3 5
1070	100260 48 256 266 0.0000006744 0.0000007184 2 1 2 3 5
1071	100308 4883 3234 28871 0.057 0.4570019656 180 0 160 12964 1367400
1072	105191 4883 3234 28871 0.057 0.4570019656 180 0 160 12964 1367400
1075	110074 77 3313 28871 0.0570001912 0.4570019656 3 0 0 0 0
1076	110151 77 3313 28871 0.0570001912 0.4570019656 3 0 0 0 0
1077	110228 77 3313 28871 0.0570001912 0.4570019656 3 0 0 0 0
1078	110305 77 3313 28871 0.0570001912 0.4570019656 3 0 0 0 0
1079	110382 24 149 149 0.0000001228 0.0000001228 1 0 0 0 0
1082	110406 86 3313 28871 0.0570001912 0.4570019656 3 2000 2089 6098 12400002
1084	110492 77 3313 28871 0.0570001912 0.4570019656 3 0 0 0 0
1085	110569 77 3313 28871 0.0570001912 0.4570019656 3 0 0 0 0
1300	110646 77 3313 28871 0.0570001912 0.4570019656 3 0 0 0 0
1301	110723 4084 3234 16229 0.057 0.2570005104 180 0 80 6482 341850
870	114807 4703 3234 28871 0.057 0.4570019656 180 0 160 12964 1367400
869	119510 4703 3234 28871 0.057 0.4570019656 180 0 160 12964 1367400
871	124213 74 3313 28871 0.0570001912 0.4570019656 3 0 0 0 0
872	124287 74 3313 28871 0.0570001912 0.4570019656 3 0 0 0 0
881	124361 86 3313 28871 0.0570001912 0.4570019656 3 65533 65535 196603 12884246539
882	124447 113 149 28871 0.0000001228 0.4570019656 4 65533 65535 262138 17179082764
885	124560 12 128 128 0 0 1 0 0 0 0
8	124572 8 0 0 0 0 1 0 0 0 0
9	124580 8 0 0 0 0 1 0 0 0 0
24	124588 9 0 0 0 0 1 0 0 0 0
25	124597 9 0 0 0 0 1 0 0 0 0
35	124606 9 0 0 0 0 1 0 0 0 0
36	124615 9 0 0 0 0 1 0 0 0 0
56	124624 9 0 0 0 0 1 0 0 0 0
57	124633 9 0 0 0 0 1 0 0 0 0
67	124642 9 0 0 0 0 1 0 0 0 0
68	124651 9 0 0 0 0 1 0 0 0 0
78	124660 9 0 0 0 0 1 0 0 0 0
79	124669 9 0 0 0 0 1 0 0 0 0
96	124678 716656 378 652638 0.002 10 40579 0 0 0 0
98	841334 516014 1060 652638 0.016 10 29232 0 0 0 0
100	1357348 99097 1909 652638 0.035 10 4641 1 4641 10771761 33331419121
101	1456445 14102 1060 651836 0.016 9.988 684 1 684 234270 106905210
106	1470547 219782 1060 652638 0.016 10 10623 514 521 5485498 2832667108
108	1690329 87348 2608 652537 0.047 9.998 4638 1 4 17116 64212
109	1777677 12527 7140 651966 0.115 9.99 660 9 10 6402 62238
111	1790204 471953 1060 652638 0.016 10 21257 1 21257 225940653 3201955620765
112	2262157 440545 1060 652638 0.016 10 21257 192 333 6144411 1857416043
113	2702702 398031 1060 652638 0.016 10 21257 0 0 0 0
115	3100733 49035 5729 652632 0.094 10 2642 2 8 13204 89768
120	3149768 10 0 0 0 0 1 0 0 0 0
121	3149778 10 0 0 0 0 1 0 0 0 0
128	3149788 421 139 28866 0 0.4570018716 18 36 1632 2824 2785120
130	3150209 438 139 28866 0 0.4570018716 18 0 8.8e-08 3.088e-07 1.946112e-14
131	3150647 280 0 258 0 0.0000007124 13 0 2 10 14
132	3150927 828 0 28868 0 0.4570019156 37 0 1 18 18
133	3151755 423 141 28867 0 0.4570018716 18 43 1639 2950 2825538
134	3152178 442 146 25802 0.0000001228 0.4070019656 18 43 1639 2950 2825538
137	3152620 423 141 28867 0 0.4570018716 18 36 1632 2824 2785120
138	3153043 442 146 25802 0.0000001228 0.4070019656 18 36 1632 2824 2785120
141	3153485 2240 3306 16476 0.0570000972 0.2570018716 90 2 2 180 360
154	3155725 308639 3610 652520 0.062 9.998 16585 0 0 0 0
156	3464364 505 4105 591771 0.069 9.092 27 0 0 0 0
169	3464869 285 4105 591749 0.069 9.091 15 1 15 120 1240
170	3465154 309 4105 591749 0.069 9.091 15 402 404 6044 2435338
171	3465463 279 4105 591749 0.069 9.091 15 0 0 0 0
178	3465742 10 0 0 0 0 1 0 0 0 0
179	3465752 10 0 0 0 0 1 0 0 0 0
186	3465762 422 140 25799 0 0.4070018716 18 36 1632 2824 2785120
188	3466184 439 140 25799 0 0.4070018716 18 0 8.8e-08 3.088e-07 1.946112e-14
189	3466623 280 0 257 0 0.0000007124 13 0 2 10 14
190	3466903 830 0 25801 0 0.4070019156 37 0 1 18 18
191	3467733 424 142 25800 0 0.4070018716 18 43 1639 2950 2825538
192	3468157 441 145 28869 0.0000001228 0.4570019656 18 43 1639 2950 2825538
195	3468598 424 142 25800 0 0.4070018716 18 36 1632 2824 2785120
196	3469022 441 145 28869 0.0000001228 0.4570019656 18 36 1632 2824 2785120
199	3469463 2230 638 13036 0.0070000972 0.2070018716 90 2 2 180 360
205	3471693 85 5331 591551 0.088660440601 9.088660440601 3 44 44 132 5808
208	3471778 85 5331 591551 0.088660440601 9.088660440601 3 45 45 135 6075
209	3471863 85 5334 591554 0.088660440601 9.088660440601 3 45 45 135 6075
210	3471948 80909 5504 652525 0.091 9.998 4295 0 0 0 0
212	3552857 68476 5337 652540 0.089 9.999 3635 0 0 0 0
218	3621333 13646 6340 651187 0.104 9.979 660 1 660 218130 96049910
231	3634979 10 0 0 0 0 1 1 1 1 1
237	3634989 85 4155 590222 0.070868452201 9.070868452201 3 44 44 132 5808
240	3635074 85 4155 590222 0.070868452201 9.070868452201 3 45 45 135 6075
241	3635159 198 4158 590907 0.070868452201 9.08 9 23 45 282 9690
242	3635357 25528 1033 651439 0.015 9.982 1380 0 0 0 0
243	3660885 107 4476 590903 0.075 9.08 6 0 0 0 0
244	3660992 25010 1033 651439 0.015 9.982 1350 0 0 0 0
249	3686002 423 1087 3724 0.017 0.063 24 1 24 300 4900
263	3686425 10 0 0 0 0 1 1 1 1 1
269	3686435 85 5780 592052 0.095104090585 9.095104090585 3 44 44 132 5808
272	3686520 85 5780 592052 0.095104090585 9.095104090585 3 45 45 135 6075
273	3686605 36296 5783 652601 0.095104090585 10 1984 0 45 135 6075
274	3722901 99510 6008 652570 0.098 9.999 5282 0 0 0 0
275	3822411 36211 6109 652597 0.1 10 1981 0 0 0 0
276	3858622 62187 5810 652320 0.096 9.996 3301 0 0 0 0
295	3920809 10 0 0 0 0 1 1 1 1 1
301	3920819 85 1556 587249 0.027262016546 9.027262016546 3 44 44 132 5808
304	3920904 85 1556 587249 0.027262016546 9.027262016546 3 45 45 135 6075
305	3920989 85 1559 587252 0.027262016546 9.027262016546 3 45 45 135 6075
308	3921074 26607 1565 652448 0.028 9.998 1401 0 0 0 0
315	3947681 29703 1565 652448 0.028 9.998 1401 1 1401 982101 917609701
327	3977384 163 0 6433 0 0.105 10 1 2 19 37
333	3977547 85 3403 589377 0.058969033093 9.058969033093 3 44 44 132 5808
336	3977632 85 3403 589377 0.058969033093 9.058969033093 3 45 45 135 6075
337	3977717 85 3406 589380 0.058969033093 9.058969033093 3 45 45 135 6075
340	3977802 26408 3413 652545 0.059 9.999 1390 0 0 0 0
347	4004210 29471 3413 652545 0.059 9.999 1390 1 1390 966745 896172615
359	4033681 163 0 6434 0 0.105 10 1 2 19 37
365	4033844 85 4825 591014 0.080385986073 9.080385986073 3 44 44 132 5808
368	4033929 85 4825 591014 0.080385986073 9.080385986073 3 45 45 135 6075
369	4034014 85 4828 591017 0.080385986073 9.080385986073 3 45 45 135 6075
372	4034099 26296 189454 652324 3.081 9.996 1384 0 0 0 0
379	4060395 29341 189454 652324 3.081 9.996 1384 1 1384 958420 884621660
391	4089736 163 0 6435 0 0.105 10 1 2 19 37
397	4089899 85 3729 589733 0.063074826114 9.063074826114 3 44 44 132 5808
400	4089984 85 3729 589733 0.063074826114 9.063074826114 3 45 45 135 6075
401	4090069 85 3732 589736 0.063074826114 9.063074826114 3 45 45 135 6075
404	4090154 37440 3741 652548 0.064 9.999 1988 0 0 0 0
410	4127594 42297 3741 652548 0.064 9.999 1988 1 1988 1977066 2620930494
423	4169891 10 0 0 0 0 1 1 1 1 1
429	4169901 85 1808 587604 0.032193433337 9.032193433337 3 44 44 132 5808
432	4169986 85 1808 587604 0.032193433337 9.032193433337 3 45 45 135 6075
433	4170071 85 1811 587607 0.032193433337 9.032193433337 3 45 45 135 6075
436	4170156 37542 1822 652453 0.033 9.998 1994 0 0 0 0
442	4207698 42417 1822 652453 0.033 9.998 1994 1 1994 1989015 2644726945
455	4250115 10 0 0 0 0 1 1 1 1 1
461	4250125 85 2291 588268 0.042654495104 9.042654495104 3 44 44 132 5808
464	4250210 85 2291 588268 0.042654495104 9.042654495104 3 45 45 135 6075
465	4250295 37574 2294 652399 0.042654495104 9.997 1994 0 45 135 6075
466	4287869 148947 1867 652641 0.034 10 7970 0 0 0 0
467	4436816 37489 2570 652395 0.047 9.997 1991 0 0 0 0
468	4474305 112539 1867 652575 0.034 9.999 5977 0 0 0 0
472	4586844 34 1965 2227 0.036 0.041 2 1 2 3 5
487	4586878 10 0 0 0 0 1 1 1 1 1
493	4586888 85 2299 588275 0.042742808261 9.042742808261 3 44 44 132 5808
496	4586973 85 2299 588275 0.042742808261 9.042742808261 3 45 45 135 6075
497	4587058 37574 2302 652404 0.042742808261 9.997 1994 0 45 135 6075
498	4624632 147632 2509 652643 0.045 10 7958 0 0 0 0
499	4772264 37489 2575 652400 0.047 9.997 1991 0 0 0 0
500	4809753 111258 2367 652630 0.043 10 5967 0 0 0 0
519	4921011 10 0 0 0 0 1 1 1 1 1
525	4921021 85 2054 587923 0.037255783586 9.037255783586 3 44 44 132 5808
528	4921106 85 2054 587923 0.037255783586 9.037255783586 3 45 45 135 6075
529	4921191 37591 2057 652409 0.037255783586 9.997 1995 0 45 135 6075
530	4958782 73915 2190 652645 0.04 10 3985 0 0 0 0
531	5032697 37506 2263 652405 0.042 9.997 1992 0 0 0 0
532	5070203 37525 2072 652459 0.038 9.998 1993 0 0 0 0
551	5107728 10 0 0 0 0 1 1 1 1 1
557	5107738 85 4022 590097 0.068596436554 9.068596436554 3 44 44 132 5808
560	5107823 85 4022 590097 0.068596436554 9.068596436554 3 45 45 135 6075
561	5107908 580 4025 593292 0.068596436554 9.113 30 7 45 324 7398
562	5108488 990 4195 593249 0.071 9.112 54 0 0 0 0
563	5109478 495 4315 593288 0.073 9.113 27 0 0 0 0
564	5109973 495 4080 593013 0.069 9.109 27 0 0 0 0
583	5110468 10 0 0 0 0 1 1 1 1 1
589	5110478 85 5202 591435 0.086132885579 9.086132885579 3 44 44 132 5808
592	5110563 85 5202 591435 0.086132885579 9.086132885579 3 45 45 135 6075
593	5110648 85 5205 591438 0.086132885579 9.086132885579 3 45 45 135 6075
594	5110733 84631 7224 652627 0.116 10 4498 0 0 0 0
596	5195364 110908 7224 652627 0.116 10 5881 0 0 0 0
602	5306272 29319 189887 652411 3.087 9.997 1383 1 1383 957036 882706204
615	5335591 163 0 6436 0 0.105 10 1 2 19 37
621	5335754 85 3933 589992 0.067512416122 9.067512416122 3 44 44 132 5808
624	5335839 85 3933 589992 0.067512416122 9.067512416122 3 45 45 135 6075
625	5335924 125 3936 590341 0.067512416122 9.072 5 45 47 229 10493
626	5336049 90 4150 590262 0.07 9.071 5 0 0 0 0
627	5336139 38 188788 590337 3.072 9.072 2 0 0 0 0
628	5336177 55 3956 590018 0.068 9.068 3 0 0 0 0
647	5336232 163 0 6437 0 0.105 10 1 2 19 37
653	5336395 85 2390 588349 0.043019576671 9.043019576671 3 44 44 132 5808
656	5336480 85 2390 588349 0.043019576671 9.043019576671 3 45 45 135 6075
657	5336565 125 2393 588674 0.043019576671 9.048 5 45 47 229 10493
658	5336690 76 187095 588609 3.046 9.047 4 0 0 0 0
659	5336766 38 187199 588670 3.048 9.048 2 0 0 0 0
660	5336804 89 2410 588372 0.044 9.044 5 0 0 0 0
667	5336893 51 2410 3004 0.044 0.054 3 1 3 6 14
679	5336944 163 0 6438 0 0.105 10 1 2 19 37
685	5337107 85 4203 590283 0.071731106779 9.071731106779 3 44 44 132 5808
688	5337192 85 4203 590283 0.071731106779 9.071731106779 3 45 45 135 6075
689	5337277 125 4206 590653 0.071731106779 9.076 5 45 47 229 10493
690	5337402 93 4429 590601 0.074 9.075 5 0 0 0 0
691	5337495 38 189088 590649 3.076 9.076 2 0 0 0 0
692	5337533 55 4256 590343 0.072 9.072 3 0 0 0 0
711	5337588 163 0 6439 0 0.105 10 1 2 19 37
717	5337751 84 872 586199 0.012314120021 9.012314120021 3 44 44 132 5808
720	5337835 84 872 586199 0.012314120021 9.012314120021 3 45 45 135 6075
721	5337919 124 875 586522 0.012314120021 9.017 5 45 47 229 10493
722	5338043 76 185115 586468 3.015 9.016 4 0 0 0 0
723	5338119 38 185193 586518 3.017 9.017 2 0 0 0 0
724	5338157 190 944 586248 0.013 9.013 11 0 0 0 0
731	5338347 152 944 2956 0.013 0.053 9 1 9 45 285
743	5338499 163 0 6440 0 0.105 10 1 2 19 37
749	5338662 85 5378 591610 0.089070481334 9.089070481334 3 44 44 132 5808
752	5338747 85 5378 591610 0.089070481334 9.089070481334 3 45 45 135 6075
753	5338832 125 5381 591961 0.089070481334 9.094 5 45 47 229 10493
754	5338957 499 1006 591923 0.014 9.093 29 0 0 0 0
755	5339456 38 190379 591957 3.094 9.094 2 0 0 0 0
756	5339494 458 1006 591660 0.014 9.09 27 0 0 0 0
775	5339952 163 0 6441 0 0.105 10 1 2 19 37
781	5340115 85 1876 587707 0.034967919982 9.034967919982 3 44 44 132 5808
784	5340200 85 1876 587707 0.034967919982 9.034967919982 3 45 45 135 6075
785	5340285 125 1879 588053 0.034967919982 9.039 5 45 47 229 10493
786	5340410 104745 186013 652635 3.03 10 5554 0 0 0 0
787	5445155 38 186613 588049 3.039 9.039 2 0 0 0 0
788	5445193 104790 1900 652635 0.035 10 5557 0 0 0 0
795	5549983 83 1900 3106 0.035 0.055 5 1 5 15 55
807	5550066 163 0 6442 0 0.105 10 1 2 19 37
813	5550229 85 6098 592365 0.099035166858 9.099035166858 3 44 44 132 5808
816	5550314 85 6098 592365 0.099035166858 9.099035166858 3 45 45 135 6075
817	5550399 85 6101 592368 0.099035166858 9.099035166858 3 45 45 135 6075
818	5550484 74592 6268 652568 0.102 9.999 3959 0 0 0 0
820	5625076 61081 6130 652618 0.1 10 3301 0 0 0 0
827	5686157 13277 6786 651612 0.11 9.985 660 1 660 218130 96049910
839	5699434 10 0 0 0 0 1 1 1 1 1
1319	5699444 93 869 586196 0.012314120021 9.012314120021 3 7504 7504 22512 168930048
1320	5699537 93 869 586196 0.012314120021 9.012314120021 3 7504 7504 22512 168930048
1322	5699630 84 869 586196 0.012314120021 9.012314120021 3 0 0 0 0
1333	5699714 84 869 586196 0.012314120021 9.012314120021 3 0 0 0 0
1343	5699798 94 1553 587246 0.027262016546 9.027262016546 3 7504 7504 22512 168930048
1344	5699892 94 1553 587246 0.027262016546 9.027262016546 3 7504 7504 22512 168930048
1346	5699986 85 1553 587246 0.027262016546 9.027262016546 3 0 0 0 0
1357	5700071 85 1553 587246 0.027262016546 9.027262016546 3 0 0 0 0
1367	5700156 94 1805 587601 0.032193433337 9.032193433337 3 7504 7504 22512 168930048
1368	5700250 94 1805 587601 0.032193433337 9.032193433337 3 7504 7504 22512 168930048
1370	5700344 85 1805 587601 0.032193433337 9.032193433337 3 0 0 0 0
1381	5700429 85 1805 587601 0.032193433337 9.032193433337 3 0 0 0 0
1391	5700514 94 1873 587704 0.034967919982 9.034967919982 3 7504 7504 22512 168930048
1392	5700608 94 1873 587704 0.034967919982 9.034967919982 3 7504 7504 22512 168930048
1394	5700702 85 1873 587704 0.034967919982 9.034967919982 3 0 0 0 0
1405	5700787 85 1873 587704 0.034967919982 9.034967919982 3 0 0 0 0
1415	5700872 94 2051 587920 0.037255783586 9.037255783586 3 7504 7504 22512 168930048
1416	5700966 94 2051 587920 0.037255783586 9.037255783586 3 7504 7504 22512 168930048
1418	5701060 85 2051 587920 0.037255783586 9.037255783586 3 0 0 0 0
1429	5701145 85 2051 587920 0.037255783586 9.037255783586 3 0 0 0 0
1439	5701230 94 2288 588265 0.042654495104 9.042654495104 3 7504 7504 22512 168930048
1440	5701324 94 2288 588265 0.042654495104 9.042654495104 3 7504 7504 22512 168930048
1442	5701418 85 2288 588265 0.042654495104 9.042654495104 3 0 0 0 0
1453	5701503 85 2288 588265 0.042654495104 9.042654495104 3 0 0 0 0
1463	5701588 94 2296 588272 0.042742808261 9.042742808261 3 7504 7504 22512 168930048
1464	5701682 94 2296 588272 0.042742808261 9.042742808261 3 7504 7504 22512 168930048
1466	5701776 85 2296 588272 0.042742808261 9.042742808261 3 0 0 0 0
1477	5701861 85 2296 588272 0.042742808261 9.042742808261 3 0 0 0 0
1487	5701946 94 2387 588346 0.043019576671 9.043019576671 3 7504 7504 22512 168930048
1488	5702040 94 2387 588346 0.043019576671 9.043019576671 3 7504 7504 22512 168930048
1490	5702134 85 2387 588346 0.043019576671 9.043019576671 3 0 0 0 0
1501	5702219 85 2387 588346 0.043019576671 9.043019576671 3 0 0 0 0
1511	5702304 94 3400 589374 0.058969033093 9.058969033093 3 7504 7504 22512 168930048
1512	5702398 94 3400 589374 0.058969033093 9.058969033093 3 7504 7504 22512 168930048
1514	5702492 85 3400 589374 0.058969033093 9.058969033093 3 0 0 0 0
1525	5702577 85 3400 589374 0.058969033093 9.058969033093 3 0 0 0 0
1535	5702662 94 3726 589730 0.063074826114 9.063074826114 3 7504 7504 22512 168930048
1536	5702756 94 3726 589730 0.063074826114 9.063074826114 3 7504 7504 22512 168930048
1538	5702850 85 3726 589730 0.063074826114 9.063074826114 3 0 0 0 0
1549	5702935 85 3726 589730 0.063074826114 9.063074826114 3 0 0 0 0
1559	5703020 94 3930 589989 0.067512416122 9.067512416122 3 7504 7504 22512 168930048
1560	5703114 94 3930 589989 0.067512416122 9.067512416122 3 7504 7504 22512 168930048
1562	5703208 85 3930 589989 0.067512416122 9.067512416122 3 0 0 0 0
1573	5703293 85 3930 589989 0.067512416122 9.067512416122 3 0 0 0 0
1583	5703378 94 4019 590094 0.068596436554 9.068596436554 3 7504 7504 22512 168930048
1584	5703472 94 4019 590094 0.068596436554 9.068596436554 3 7504 7504 22512 168930048
1586	5703566 85 4019 590094 0.068596436554 9.068596436554 3 0 0 0 0
1597	5703651 85 4019 590094 0.068596436554 9.068596436554 3 0 0 0 0
1607	5703736 94 4152 590219 0.070868452201 9.070868452201 3 7504 7504 22512 168930048
1608	5703830 94 4152 590219 0.070868452201 9.070868452201 3 7504 7504 22512 168930048
1610	5703924 85 4152 590219 0.070868452201 9.070868452201 3 0 0 0 0
1621	5704009 85 4152 590219 0.070868452201 9.070868452201 3 0 0 0 0
1631	5704094 94 4200 590280 0.071731106779 9.071731106779 3 7504 7504 22512 168930048
1632	5704188 94 4200 590280 0.071731106779 9.071731106779 3 7504 7504 22512 168930048
1634	5704282 85 4200 590280 0.071731106779 9.071731106779 3 0 0 0 0
1645	5704367 85 4200 590280 0.071731106779 9.071731106779 3 0 0 0 0
1655	5704452 94 4822 591011 0.080385986073 9.080385986073 3 7504 7504 22512 168930048
1656	5704546 94 4822 591011 0.080385986073 9.080385986073 3 7504 7504 22512 168930048
1658	5704640 85 4822 591011 0.080385986073 9.080385986073 3 0 0 0 0
1669	5704725 85 4822 591011 0.080385986073 9.080385986073 3 0 0 0 0
1679	5704810 94 5199 591432 0.086132885579 9.086132885579 3 7504 7504 22512 168930048
1680	5704904 94 5199 591432 0.086132885579 9.086132885579 3 7504 7504 22512 168930048
1682	5704998 85 5199 591432 0.086132885579 9.086132885579 3 0 0 0 0
1693	5705083 85 5199 591432 0.086132885579 9.086132885579 3 0 0 0 0
1703	5705168 94 5328 591548 0.088660440601 9.088660440601 3 7504 7504 22512 168930048
1704	5705262 94 5328 591548 0.088660440601 9.088660440601 3 7504 7504 22512 168930048
1706	5705356 85 5328 591548 0.088660440601 9.088660440601 3 0 0 0 0
1717	5705441 85 5328 591548 0.088660440601 9.088660440601 3 0 0 0 0
1727	5705526 94 5375 591607 0.089070481334 9.089070481334 3 7504 7504 22512 168930048
1728	5705620 94 5375 591607 0.089070481334 9.089070481334 3 7504 7504 22512 168930048
1730	5705714 85 5375 591607 0.089070481334 9.089070481334 3 0 0 0 0
1741	5705799 85 5375 591607 0.089070481334 9.089070481334 3 0 0 0 0
1751	5705884 94 5777 592049 0.095104090585 9.095104090585 3 7504 7504 22512 168930048
1752	5705978 94 5777 592049 0.095104090585 9.095104090585 3 7504 7504 22512 168930048
1754	5706072 85 5777 592049 0.095104090585 9.095104090585 3 0 0 0 0
1765	5706157 85 5777 592049 0.095104090585 9.095104090585 3 0 0 0 0
1775	5706242 94 6095 592362 0.099035166858 9.099035166858 3 7504 7504 22512 168930048
1776	5706336 94 6095 592362 0.099035166858 9.099035166858 3 7504 7504 22512 168930048
1778	5706430 85 6095 592362 0.099035166858 9.099035166858 3 0 0 0 0
1789	5706515 85 6095 592362 0.099035166858 9.099035166858 3 0 0 0 0
