file 169518 1580764620                                          
version 2
run CAIN-144-20200203-18:16:10-444
attr configname CAIN
attr datetime 20200203-18:16:10
attr experiment CAIN
attr inifile omnetpp.ini
attr iterationvars "$0=180, $mob=\"./movements/RPGM-0.5.movements\""
attr iterationvars2 "$0=180, $mob=\"./movements/RPGM-0.5.movements\", $repetition=9"
attr measurement "$0=180, $mob=\"./movements/RPGM-0.5.movements\""
attr mob "\"./movements/RPGM-0.5.movements\""
attr network lte.simulations.networks.CAIN
attr processid 444
attr repetition 9
attr replication #9
attr resultdir results
attr runnumber 144
attr seedset 9
param **.**.amcMode "\"AUTO\""
param **.amcMode "\"D2D\""
param **.cainNetwork true
param **.channelControl.alpha 1.0
param **.channelControl.carrierFrequency 2100e+6Hz
param **.channelControl.pMax 10W
param **.d2dCqi 7
param **.deployer.numRbDl 50
param **.deployer.numRbUl 50
param **.distThresh "${170..190 step 10}"
param **.fbDelay 1
param **.feedbackComputation "xmldoc(\"config_channel.xml\")"
param **.mobility.constraintAreaMaxX 1000m
param **.mobility.constraintAreaMaxY 1000m
param **.mobility.constraintAreaMaxZ 0m
param **.mobility.constraintAreaMinX 0m
param **.mobility.constraintAreaMinY 0m
param **.mobility.constraintAreaMinZ 0m
param **.nic.phy.channelModel "xmldoc(\"config_channel.xml\")"
param **.numBands 50
param **.pwrThresh -10
param **.qtdThresh 3
param **.rbAllocationType "\"localized\""
param **.routingRecorder.enabled false
param **.tcpApp[*].tClose -1s
param **.ueD2DTx[*].mobility.changeAngleBy "normal(0deg, 30deg)"
param **.ueD2DTx[*].mobility.changeInterval "normal(5s, 0.1s)"
param **.ueD2DTx[*].mobility.nodeId -1
param **.ueD2DTx[*].mobility.speed "normal(2mps, 0.01mps)"
param **.ueD2DTx[*].mobility.traceFile "${mob=\"./movements/RWP-0.0.movements\",\"./movements/RWP-0.5.movements\",\"./movements/RPGM-0.0.movements\",\"./movements/RPGM-0.5.movements\",\"./movements/RWPRPGM-0.0.movements\",\"./movements/RWPRPGM-0.5.movements\"}"
param **.ueD2DTx[*].mobilityType "\"BonnMotionMobility\""
param **.usePreconfiguredTxParams false
param *.eNodeB.d2dCapable false
param *.eNodeB.mobility.initFromDisplayString false
param *.eNodeB.mobility.initialX 300m
param *.eNodeB.mobility.initialY 300m
param *.eNodeB.nic.phy.enableD2DCqiReporting true
param *.eNodeB.txPower 19952.62315mw
param *.numUeCell 0
param *.numUeD2DRx 1
param *.numUeD2DTx 1
param *.ue*.macCellId 1
param *.ue*.masterId 1
param *.ue*.mobility.initFromDisplayString false
param *.ue*[0].macCellId 1
param *.ue*[0].masterId 1
param *.ue*[0].mobility.initFromDisplayString false
param *.ueD2D*.numTcpApps 1
param *.ueD2D*[*].d2dCapable true
param *.ueD2D*[0].d2dCapable false
param *.ueD2D*[0].numTcpApps 1
param *.ueD2DRx[0].mobility.initialX 310m
param *.ueD2DRx[0].mobility.initialY 350m
param *.ueD2DRx[0].tcpApp[*].localPort 1000
param *.ueD2DRx[0].tcpApp[*].typename "\"TCPSinkApp\""
param *.ueD2DTx*.tcpApp[*].connectAddress "\"ueD2DTx[0]\""
param *.ueD2DTx*.tcpApp[*].localAddress "\"ueD2DTx\""
param *.ueD2DTx*.tcpApp[*].localPort 1000
param *.ueD2DTx*.tcpApp[*].sendBytes 1GiB
param *.ueD2DTx*.tcpApp[*].typename "\"TCPSessionApp\""
param *.ueD2DTx*.tcpApp[0].active true
param *.ueD2DTx*.tcpApp[0].connectPort 1000
param *.ueD2DTx*.tcpApp[0].tOpen uniform(0.010s,0.1s)
param *.ueD2DTx*.tcpApp[0].tSend uniform(0.15s,0.5s)
param *.ueD2DTx[0].mobility.initialX 290m
param *.ueD2DTx[0].mobility.initialY 350m
param *.ueD2DTx[0].nic.d2dPeerAddresses "\"ueD2DTx[1]\""
param *.ueD2DTx[0].tcpApp[*].localPort 1000
param *.ueD2DTx[0].tcpApp[*].sendBytes 1GiB
param *.ueD2DTx[0].tcpApp[*].typename "\"TCPSessionApp\""
param *.ueD2DTx[0].tcpApp[0].active true
param *.ueD2DTx[0].tcpApp[0].connectAddress "\"ueD2DRx[0]\""
param *.ueD2DTx[0].tcpApp[0].connectPort 1000
param *.ueD2DTx[0].tcpApp[0].localAddress "\"ueD2DTx[0]\""
param *.ueD2DTx[0].tcpApp[0].tOpen uniform(0.010s,0.1s)
param *.ueD2DTx[0].tcpApp[0].tSend uniform(0.15s,0.5s)
param *.ueD2DTx[1].nic.d2dPeerAddresses "\"ueD2DTx[0]\""

vector 8  CAIN.server.ppp[0].queue  queueLength:vector  ETV
attr interpolationmode  sample-hold
attr title  "queue length, vector"
vector 9  CAIN.server.ppp[0].ppp  txState:vector  ETV
attr interpolationmode  sample-hold
attr title  "tx state, vector"
vector 24  CAIN.router.ppp[0].queue  queueLength:vector  ETV
attr interpolationmode  sample-hold
attr title  "queue length, vector"
vector 25  CAIN.router.ppp[0].ppp  txState:vector  ETV
attr interpolationmode  sample-hold
attr title  "tx state, vector"
vector 35  CAIN.router.ppp[1].queue  queueLength:vector  ETV
attr interpolationmode  sample-hold
attr title  "queue length, vector"
vector 36  CAIN.router.ppp[1].ppp  txState:vector  ETV
attr interpolationmode  sample-hold
attr title  "tx state, vector"
vector 56  CAIN.pgw.ppp[0].queue  queueLength:vector  ETV
attr interpolationmode  sample-hold
attr title  "queue length, vector"
vector 57  CAIN.pgw.ppp[0].ppp  txState:vector  ETV
attr interpolationmode  sample-hold
attr title  "tx state, vector"
vector 67  CAIN.pgw.pppInterface.queue  queueLength:vector  ETV
attr interpolationmode  sample-hold
attr title  "queue length, vector"
vector 68  CAIN.pgw.pppInterface.ppp  txState:vector  ETV
attr interpolationmode  sample-hold
attr title  "tx state, vector"
vector 104  CAIN.eNodeB.pppIf.queue  queueLength:vector  ETV
attr interpolationmode  sample-hold
attr title  "queue length, vector"
vector 105  CAIN.eNodeB.pppIf.ppp  txState:vector  ETV
attr interpolationmode  sample-hold
attr title  "tx state, vector"
vector 138  CAIN.ueD2DTx[0].nic.phy  servingCell:vector  ETV
attr source  servingCell
attr title  "ID of the serving eNodeB for the UE, vector"
attr unit  ""
vector 165  CAIN.ueD2DTx[1].nic.phy  servingCell:vector  ETV
attr source  servingCell
attr title  "ID of the serving eNodeB for the UE, vector"
attr unit  ""
vector 192  CAIN.ueD2DTx[2].nic.phy  servingCell:vector  ETV
attr source  servingCell
attr title  "ID of the serving eNodeB for the UE, vector"
attr unit  ""
vector 219  CAIN.ueD2DTx[3].nic.phy  servingCell:vector  ETV
attr source  servingCell
attr title  "ID of the serving eNodeB for the UE, vector"
attr unit  ""
vector 246  CAIN.ueD2DTx[4].nic.phy  servingCell:vector  ETV
attr source  servingCell
attr title  "ID of the serving eNodeB for the UE, vector"
attr unit  ""
vector 85  CAIN.eNodeB.nic.mac  receivedPacketFromLowerLayer:vector(packetBytes)  ETV
attr interpolationmode  none
attr source  receivedPacketFromLowerLayer
vector 264  CAIN.ueD2DTx[4].tcp  tcpRcvQueueBytes  ETV
vector 251  CAIN.ueD2DTx[4].tcp  "advertised window"  ETV
vector 250  CAIN.ueD2DTx[4].tcp  "receive window"  ETV
vector 253  CAIN.ueD2DTx[4].tcp  "sent ack"  ETV
vector 225  CAIN.ueD2DTx[4].nic.pdcpRrc  receivedPacketFromUpperLayer:vector(packetBytes)  ETV
attr interpolationmode  none
attr source  receivedPacketFromUpperLayer
vector 228  CAIN.ueD2DTx[4].nic.pdcpRrc  sentPacketToLowerLayer:vector(packetBytes)  ETV
attr interpolationmode  none
attr source  sentPacketToLowerLayer
vector 229  CAIN.ueD2DTx[4].nic.mac  receivedPacketFromUpperLayer:vector(packetBytes)  ETV
attr interpolationmode  none
attr source  receivedPacketFromUpperLayer
vector 232  CAIN.ueD2DTx[4].nic.mac  sentPacketToLowerLayer:vector(packetBytes)  ETV
attr interpolationmode  none
attr source  sentPacketToLowerLayer
vector 96  CAIN.eNodeB.nic.mac  racpkt:vector  ETV
attr interpolationmode  none
attr title  "eNB received racpkt message, vector"
vector 97  CAIN.eNodeB.nic.mac  racDistanceSignal:vector  ETV
attr interpolationmode  none
attr title  "Rac distance to enb, vector"
vector 87  CAIN.eNodeB.nic.mac  sentPacketToLowerLayer:vector(packetBytes)  ETV
attr interpolationmode  none
attr source  sentPacketToLowerLayer
vector 288  CAIN.ueD2DTx[0].tcp  tcpRcvQueueBytes  ETV
vector 275  CAIN.ueD2DTx[0].tcp  "advertised window"  ETV
vector 274  CAIN.ueD2DTx[0].tcp  "receive window"  ETV
vector 277  CAIN.ueD2DTx[0].tcp  "sent ack"  ETV
vector 117  CAIN.ueD2DTx[0].nic.pdcpRrc  receivedPacketFromUpperLayer:vector(packetBytes)  ETV
attr interpolationmode  none
attr source  receivedPacketFromUpperLayer
vector 120  CAIN.ueD2DTx[0].nic.pdcpRrc  sentPacketToLowerLayer:vector(packetBytes)  ETV
attr interpolationmode  none
attr source  sentPacketToLowerLayer
vector 121  CAIN.ueD2DTx[0].nic.mac  receivedPacketFromUpperLayer:vector(packetBytes)  ETV
attr interpolationmode  none
attr source  receivedPacketFromUpperLayer
vector 124  CAIN.ueD2DTx[0].nic.mac  sentPacketToLowerLayer:vector(packetBytes)  ETV
attr interpolationmode  none
attr source  sentPacketToLowerLayer
vector 230  CAIN.ueD2DTx[4].nic.mac  receivedPacketFromLowerLayer:vector(packetBytes)  ETV
attr interpolationmode  none
attr source  receivedPacketFromLowerLayer
vector 241  CAIN.ueD2DTx[4].nic.mac  racpkt:vector  ETV
attr interpolationmode  none
attr title  "eNB received racpkt message, vector"
vector 242  CAIN.ueD2DTx[4].nic.mac  racDistanceSignal:vector  ETV
attr interpolationmode  none
attr title  "Rac distance to enb, vector"
vector 231  CAIN.ueD2DTx[4].nic.mac  sentPacketToUpperLayer:vector(packetBytes)  ETV
attr interpolationmode  none
attr source  sentPacketToUpperLayer
vector 122  CAIN.ueD2DTx[0].nic.mac  receivedPacketFromLowerLayer:vector(packetBytes)  ETV
attr interpolationmode  none
attr source  receivedPacketFromLowerLayer
vector 133  CAIN.ueD2DTx[0].nic.mac  racpkt:vector  ETV
attr interpolationmode  none
attr title  "eNB received racpkt message, vector"
vector 134  CAIN.ueD2DTx[0].nic.mac  racDistanceSignal:vector  ETV
attr interpolationmode  none
attr title  "Rac distance to enb, vector"
vector 99  CAIN.eNodeB.nic.phy  averageCqiUlvect:vector  ETV
attr source  averageCqiUlvect
attr title  "Average Cqi reported in UL, vector"
attr unit  cqi
vector 312  CAIN.ueD2DTx[3].tcp  tcpRcvQueueBytes  ETV
vector 299  CAIN.ueD2DTx[3].tcp  "advertised window"  ETV
vector 298  CAIN.ueD2DTx[3].tcp  "receive window"  ETV
vector 301  CAIN.ueD2DTx[3].tcp  "sent ack"  ETV
vector 198  CAIN.ueD2DTx[3].nic.pdcpRrc  receivedPacketFromUpperLayer:vector(packetBytes)  ETV
attr interpolationmode  none
attr source  receivedPacketFromUpperLayer
vector 201  CAIN.ueD2DTx[3].nic.pdcpRrc  sentPacketToLowerLayer:vector(packetBytes)  ETV
attr interpolationmode  none
attr source  sentPacketToLowerLayer
vector 202  CAIN.ueD2DTx[3].nic.mac  receivedPacketFromUpperLayer:vector(packetBytes)  ETV
attr interpolationmode  none
attr source  receivedPacketFromUpperLayer
vector 205  CAIN.ueD2DTx[3].nic.mac  sentPacketToLowerLayer:vector(packetBytes)  ETV
attr interpolationmode  none
attr source  sentPacketToLowerLayer
vector 86  CAIN.eNodeB.nic.mac  sentPacketToUpperLayer:vector(packetBytes)  ETV
attr interpolationmode  none
attr source  sentPacketToUpperLayer
vector 88  CAIN.eNodeB.nic.mac  measuredItbs:vector  ETV
attr source  measuredItbs
attr title  "TBS index, vector"
attr unit  ""
vector 81  CAIN.eNodeB.nic.pdcpRrc  receivedPacketFromLowerLayer:vector(packetBytes)  ETV
attr interpolationmode  none
attr source  receivedPacketFromLowerLayer
vector 82  CAIN.eNodeB.nic.pdcpRrc  sentPacketToUpperLayer:vector(packetBytes)  ETV
attr interpolationmode  none
attr source  sentPacketToUpperLayer
vector 80  CAIN.eNodeB.nic.pdcpRrc  receivedPacketFromUpperLayer:vector(packetBytes)  ETV
attr interpolationmode  none
attr source  receivedPacketFromUpperLayer
vector 83  CAIN.eNodeB.nic.pdcpRrc  sentPacketToLowerLayer:vector(packetBytes)  ETV
attr interpolationmode  none
attr source  sentPacketToLowerLayer
vector 84  CAIN.eNodeB.nic.mac  receivedPacketFromUpperLayer:vector(packetBytes)  ETV
attr interpolationmode  none
attr source  receivedPacketFromUpperLayer
vector 203  CAIN.ueD2DTx[3].nic.mac  receivedPacketFromLowerLayer:vector(packetBytes)  ETV
attr interpolationmode  none
attr source  receivedPacketFromLowerLayer
vector 214  CAIN.ueD2DTx[3].nic.mac  racpkt:vector  ETV
attr interpolationmode  none
attr title  "eNB received racpkt message, vector"
vector 215  CAIN.ueD2DTx[3].nic.mac  racDistanceSignal:vector  ETV
attr interpolationmode  none
attr title  "Rac distance to enb, vector"
vector 135  CAIN.ueD2DTx[0].nic.phy  averageCqiDlvect:vector  ETV
attr source  averageCqiDlvect
attr title  "Average Cqi reported in DL, vector"
attr unit  cqi
vector 204  CAIN.ueD2DTx[3].nic.mac  sentPacketToUpperLayer:vector(packetBytes)  ETV
attr interpolationmode  none
attr source  sentPacketToUpperLayer
vector 123  CAIN.ueD2DTx[0].nic.mac  sentPacketToUpperLayer:vector(packetBytes)  ETV
attr interpolationmode  none
attr source  sentPacketToUpperLayer
vector 118  CAIN.ueD2DTx[0].nic.pdcpRrc  receivedPacketFromLowerLayer:vector(packetBytes)  ETV
attr interpolationmode  none
attr source  receivedPacketFromLowerLayer
vector 119  CAIN.ueD2DTx[0].nic.pdcpRrc  sentPacketToUpperLayer:vector(packetBytes)  ETV
attr interpolationmode  none
attr source  sentPacketToUpperLayer
vector 164  CAIN.ueD2DTx[1].nic.phy  averageCqiD2Dvect:vector  ETV
attr source  averageCqiD2Dvect
attr title  "Average Cqi reported in D2D, vector"
attr unit  cqi
vector 149  CAIN.ueD2DTx[1].nic.mac  receivedPacketFromLowerLayer:vector(packetBytes)  ETV
attr interpolationmode  none
attr source  receivedPacketFromLowerLayer
vector 151  CAIN.ueD2DTx[1].nic.mac  sentPacketToLowerLayer:vector(packetBytes)  ETV
attr interpolationmode  none
attr source  sentPacketToLowerLayer
vector 150  CAIN.ueD2DTx[1].nic.mac  sentPacketToUpperLayer:vector(packetBytes)  ETV
attr interpolationmode  none
attr source  sentPacketToUpperLayer
vector 145  CAIN.ueD2DTx[1].nic.pdcpRrc  receivedPacketFromLowerLayer:vector(packetBytes)  ETV
attr interpolationmode  none
attr source  receivedPacketFromLowerLayer
vector 146  CAIN.ueD2DTx[1].nic.pdcpRrc  sentPacketToUpperLayer:vector(packetBytes)  ETV
attr interpolationmode  none
attr source  sentPacketToUpperLayer
vector 336  CAIN.ueD2DTx[1].tcp  tcpRcvQueueBytes  ETV
vector 323  CAIN.ueD2DTx[1].tcp  "advertised window"  ETV
vector 322  CAIN.ueD2DTx[1].tcp  "receive window"  ETV
vector 325  CAIN.ueD2DTx[1].tcp  "sent ack"  ETV
vector 144  CAIN.ueD2DTx[1].nic.pdcpRrc  receivedPacketFromUpperLayer:vector(packetBytes)  ETV
attr interpolationmode  none
attr source  receivedPacketFromUpperLayer
vector 147  CAIN.ueD2DTx[1].nic.pdcpRrc  sentPacketToLowerLayer:vector(packetBytes)  ETV
attr interpolationmode  none
attr source  sentPacketToLowerLayer
vector 148  CAIN.ueD2DTx[1].nic.mac  receivedPacketFromUpperLayer:vector(packetBytes)  ETV
attr interpolationmode  none
attr source  receivedPacketFromUpperLayer
vector 160  CAIN.ueD2DTx[1].nic.mac  racpkt:vector  ETV
attr interpolationmode  none
attr title  "eNB received racpkt message, vector"
vector 161  CAIN.ueD2DTx[1].nic.mac  racDistanceSignal:vector  ETV
attr interpolationmode  none
attr title  "Rac distance to enb, vector"
vector 360  CAIN.ueD2DTx[2].tcp  tcpRcvQueueBytes  ETV
vector 347  CAIN.ueD2DTx[2].tcp  "advertised window"  ETV
vector 346  CAIN.ueD2DTx[2].tcp  "receive window"  ETV
vector 349  CAIN.ueD2DTx[2].tcp  "sent ack"  ETV
vector 171  CAIN.ueD2DTx[2].nic.pdcpRrc  receivedPacketFromUpperLayer:vector(packetBytes)  ETV
attr interpolationmode  none
attr source  receivedPacketFromUpperLayer
vector 174  CAIN.ueD2DTx[2].nic.pdcpRrc  sentPacketToLowerLayer:vector(packetBytes)  ETV
attr interpolationmode  none
attr source  sentPacketToLowerLayer
vector 175  CAIN.ueD2DTx[2].nic.mac  receivedPacketFromUpperLayer:vector(packetBytes)  ETV
attr interpolationmode  none
attr source  receivedPacketFromUpperLayer
vector 178  CAIN.ueD2DTx[2].nic.mac  sentPacketToLowerLayer:vector(packetBytes)  ETV
attr interpolationmode  none
attr source  sentPacketToLowerLayer
vector 176  CAIN.ueD2DTx[2].nic.mac  receivedPacketFromLowerLayer:vector(packetBytes)  ETV
attr interpolationmode  none
attr source  receivedPacketFromLowerLayer
vector 187  CAIN.ueD2DTx[2].nic.mac  racpkt:vector  ETV
attr interpolationmode  none
attr title  "eNB received racpkt message, vector"
vector 188  CAIN.ueD2DTx[2].nic.mac  racDistanceSignal:vector  ETV
attr interpolationmode  none
attr title  "Rac distance to enb, vector"
vector 177  CAIN.ueD2DTx[2].nic.mac  sentPacketToUpperLayer:vector(packetBytes)  ETV
attr interpolationmode  none
attr source  sentPacketToUpperLayer
vector 137  CAIN.ueD2DTx[0].nic.phy  averageCqiD2Dvect:vector  ETV
attr source  averageCqiD2Dvect
attr title  "Average Cqi reported in D2D, vector"
attr unit  cqi
8	16346 8 0 0 0 0 1 0 0 0 0
9	16354 8 0 0 0 0 1 0 0 0 0
24	16362 9 0 0 0 0 1 0 0 0 0
25	16371 9 0 0 0 0 1 0 0 0 0
35	16380 9 0 0 0 0 1 0 0 0 0
36	16389 9 0 0 0 0 1 0 0 0 0
56	16398 9 0 0 0 0 1 0 0 0 0
57	16407 9 0 0 0 0 1 0 0 0 0
67	16416 9 0 0 0 0 1 0 0 0 0
68	16425 9 0 0 0 0 1 0 0 0 0
80	16434 156 397 95022 0.029 9.061 9 44 44 396 17424
81	16590 156 392 95017 0.029 9.061 9 45 45 405 18225
82	16746 156 392 95017 0.029 9.061 9 44 44 396 17424
83	16902 156 397 95022 0.029 9.061 9 45 45 405 18225
84	17058 309 400 95036 0.029 9.062 18 45 47 828 38106
85	17367 140252 60 104786 0.002 9.998 8388 0 0 0 0
86	157619 318 387 95032 0.029 9.062 19 0 47 425 18933
87	157937 1569 279 95042 0.022 9.062 97 0 0 0 0
88	159506 465 387 95032 0.029 9.062 27 14 26 650 16108
96	159971 373 279 94905 0.022 9.054 22 1 22 253 3795
97	160344 404 279 94905 0.022 9.054 22 183 280 5018 1192504
99	160748 380 357 94986 0.026 9.058 22 8 15 312 4512
104	161128 10 0 0 0 0 1 0 0 0 0
105	161138 10 0 0 0 0 1 0 0 0 0
117	161148 82 285 94338 0.022359778942 9.022359778942 3 44 44 132 5808
118	161230 220 512 95092 0.034 9.066 12 45 45 540 24300
119	161450 220 512 95092 0.034 9.066 12 44 44 528 23232
120	161670 82 285 94338 0.022359778942 9.022359778942 3 45 45 135 6075
121	161752 137 288 94547 0.022359778942 9.033 6 45 47 276 12702
122	161889 673 337 95067 0.025 9.063 39 0 0 0 0
123	162562 272 491 95088 0.033 9.066 15 0 47 564 26508
124	162834 468 291 95088 0.023 9.066 27 0 0 0 0
133	163302 101 337 94489 0.025 9.03 6 1 6 21 91
134	163403 101 337 94489 0.025 9.03 6 0 0 0 0
135	163504 165 459 95066 0.031 9.063 9 15 15 135 2025
137	163669 55 837 94888 0.053 9.053 3 15 15 45 675
138	163724 10 0 0 0 0 1 1 1 1 1
144	163734 82 646 94697 0.041596848876 9.041596848876 3 44 44 132 5808
145	163816 55 574 94626 0.037 9.037 3 45 45 135 6075
146	163871 55 574 94626 0.037 9.037 3 44 44 132 5808
147	163926 82 646 94697 0.041596848876 9.041596848876 3 45 45 135 6075
148	164008 137 649 94865 0.041596848876 9.052 6 45 47 276 12702
149	164145 517 522 94977 0.034 9.057 30 0 0 0 0
150	164662 107 570 94861 0.037 9.052 6 0 47 141 6627
151	164769 312 570 94874 0.037 9.052 18 0 0 0 0
160	165081 104 699 94819 0.044 9.049 6 1 6 21 91
161	165185 104 699 94819 0.044 9.049 6 0 0 0 0
164	165289 55 521 94573 0.034 9.034 3 15 15 45 675
165	165344 10 0 0 0 0 1 1 1 1 1
171	165354 82 732 94782 0.047412531788 9.047412531788 3 44 44 132 5808
174	165436 82 732 94782 0.047412531788 9.047412531788 3 45 45 135 6075
175	165518 156 735 94965 0.047412531788 9.057 7 19 47 278 11754
176	165674 277 793 95057 0.05 9.062 16 0 0 0 0
177	165951 70 816 94961 0.052 9.057 4 0 0 0 0
178	166021 140 744 94970 0.048 9.057 8 0 0 0 0
187	166161 67 793 94923 0.05 9.055 4 1 4 10 30
188	166228 67 793 94923 0.05 9.055 4 0 0 0 0
192	166295 10 0 0 0 0 1 1 1 1 1
198	166305 82 372 94424 0.027975086716 9.027975086716 3 44 44 132 5808
201	166387 82 372 94424 0.027975086716 9.027975086716 3 45 45 135 6075
202	166469 137 375 94521 0.027975086716 9.032 6 45 47 276 12702
203	166606 205 439 94642 0.03 9.037 12 0 0 0 0
204	166811 52 465 94517 0.032 9.032 3 0 0 0 0
205	166863 104 381 94526 0.028 9.032 6 0 0 0 0
214	166967 49 439 94491 0.03 9.03 3 1 3 6 14
215	167016 49 439 94491 0.03 9.03 3 0 0 0 0
219	167065 10 0 0 0 0 1 1 1 1 1
225	167075 82 259 94313 0.020840842782 9.020840842782 3 44 44 132 5808
228	167157 82 259 94313 0.020840842782 9.020840842782 3 45 45 135 6075
229	167239 137 262 94385 0.020840842782 9.025 6 45 47 276 12702
230	167376 202 299 94487 0.023 9.03 12 0 0 0 0
231	167578 52 328 94381 0.025 9.025 3 0 0 0 0
232	167630 104 268 94387 0.021 9.025 6 0 0 0 0
241	167734 52 299 94352 0.023 9.023 3 1 3 6 14
242	167786 52 299 94352 0.023 9.023 3 0 0 0 0
246	167838 10 0 0 0 0 1 1 1 1 1
250	167848 88 256 94310 0.020840842782 9.020840842782 3 7504 7504 22512 168930048
251	167936 88 256 94310 0.020840842782 9.020840842782 3 7504 7504 22512 168930048
253	168024 79 256 94310 0.020840842782 9.020840842782 3 0 0 0 0
264	168103 79 256 94310 0.020840842782 9.020840842782 3 0 0 0 0
274	168182 88 282 94335 0.022359778942 9.022359778942 3 7504 7504 22512 168930048
275	168270 88 282 94335 0.022359778942 9.022359778942 3 7504 7504 22512 168930048
277	168358 79 282 94335 0.022359778942 9.022359778942 3 0 0 0 0
288	168437 79 282 94335 0.022359778942 9.022359778942 3 0 0 0 0
298	168516 88 369 94421 0.027975086716 9.027975086716 3 7504 7504 22512 168930048
299	168604 88 369 94421 0.027975086716 9.027975086716 3 7504 7504 22512 168930048
301	168692 79 369 94421 0.027975086716 9.027975086716 3 0 0 0 0
312	168771 79 369 94421 0.027975086716 9.027975086716 3 0 0 0 0
322	168850 88 643 94694 0.041596848876 9.041596848876 3 7504 7504 22512 168930048
323	168938 88 643 94694 0.041596848876 9.041596848876 3 7504 7504 22512 168930048
325	169026 79 643 94694 0.041596848876 9.041596848876 3 0 0 0 0
336	169105 79 643 94694 0.041596848876 9.041596848876 3 0 0 0 0
346	169184 88 729 94779 0.047412531788 9.047412531788 3 7504 7504 22512 168930048
347	169272 88 729 94779 0.047412531788 9.047412531788 3 7504 7504 22512 168930048
349	169360 79 729 94779 0.047412531788 9.047412531788 3 0 0 0 0
360	169439 79 729 94779 0.047412531788 9.047412531788 3 0 0 0 0
