version 2
run CAIN-16-20200804-12:50:44-18398
attr configname CAIN
attr datetime 20200804-12:50:44
attr experiment CAIN
attr inifile omnetpp.ini
attr iterationvars "$nEnb=2, $numUe=20, $pwr=-60, $mob=\"./movements/RWP-0.0.movements\""
attr iterationvars2 "$nEnb=2, $numUe=20, $pwr=-60, $mob=\"./movements/RWP-0.0.movements\", $repetition=16"
attr measurement "$nEnb=2, $numUe=20, $pwr=-60, $mob=\"./movements/RWP-0.0.movements\""
attr mob "\"./movements/RWP-0.0.movements\""
attr nEnb 2
attr network lte.simulations.networks.CAIN
attr numUe 20
attr processid 18398
attr pwr -60
attr repetition 16
attr replication #16
attr resultdir results
attr runnumber 16
attr seedset 16
param **.**.amcMode "\"AUTO\""
param **.amcMode "\"D2D\""
param **.channelControl.alpha 1.0
param **.channelControl.carrierFrequency 2100e+6Hz
param **.channelControl.pMax 10W
param **.d2dCqi 7
param **.deployer.numRbDl 50
param **.deployer.numRbUl 50
param **.distThresh 200
param **.eNodeB*.txPower 19952.62315mw
param **.fbDelay 1
param **.feedbackComputation "xmldoc(\"config_channel.xml\")"
param **.mobility.constraintAreaMaxX 1000m
param **.mobility.constraintAreaMaxY 1000m
param **.mobility.constraintAreaMaxZ 0m
param **.mobility.constraintAreaMinX 0m
param **.mobility.constraintAreaMinY 0m
param **.mobility.constraintAreaMinZ 0m
param **.networkType "\"CAIN\""
param **.nic.phy.channelModel "xmldoc(\"config_channel.xml\")"
param **.numBands 50
param **.pwrThresh "${pwr= -60}"
param **.qtdThresh 3
param **.rbAllocationType "\"localized\""
param **.routingRecorder.enabled false
param **.tcpApp[*].tClose -1s
param **.ueD2DTx[*].mobility.changeAngleBy "normal(0deg, 30deg)"
param **.ueD2DTx[*].mobility.changeInterval "normal(5s, 0.1s)"
param **.ueD2DTx[*].mobility.nodeId -1
param **.ueD2DTx[*].mobility.traceFile "${mob=\"./movements/RWP-0.0.movements\",\"./movements/RWP-0.5.movements\",\"./movements/RPGM-0.0.movements\",\"./movements/RPGM-0.5.movements\",\"./movements/RWPRPGM-0.0.movements\",\"./movements/RWPRPGM-0.5.movements\"}"
param **.ueD2DTx[*].mobilityType "\"BonnMotionMobility\""
param **.usePreconfiguredTxParams false
param *.eNodeB*.mobility.initialY 300m
param *.eNodeB*.numX2Apps 1
param *.eNodeB*.x2App[*].server.localPort "5000 + ancestorIndex(1)"
param *.eNodeB.d2dCapable false
param *.eNodeB.mobility.initFromDisplayString false
param *.eNodeB.mobility.initialX 300m
param *.eNodeB.mobility.initialY 300m
param *.eNodeB[*].d2dCapable true
param *.eNodeB[*].mobility.initFromDisplayString false
param *.eNodeB[*].mobility.initialX 300m+(ancestorIndex(1))*400m
param *.eNodeB[*].nic.phy.enableD2DCqiReporting true
param *.eNodeB[*].x2App[0..1].typename "\"X2AppClient\""
param *.eNodeB[*].x2App[0].client.connectAddress "\"eNodeB[\"+string((ancestorIndex(2)+1)%${nEnb})+\"]%x2ppp0\""
param *.extCell[*].bandAllocationType "\"FULL_ALLOC\""
param *.extCell[*].bandUtilization 0.5
param *.extCell[*].txDirection "\"ANISOTROPIC\""
param *.extCell[*].txPower 20
param *.extCell[0].position_x 100m
param *.extCell[0].position_y 600m
param *.extCell[0].txAngle 315
param *.extCell[1].position_x 600m
param *.extCell[1].position_y 600m
param *.extCell[1].txAngle 225
param *.numEnB "${nEnb= 2}"
param *.numExtCells 2
param *.numUeCell 0
param *.numUeD2DRx 1
param *.numUeD2DTx 1
param *.ue*.macCellId 1
param *.ue*.masterId 1
param *.ue*.mobility.initFromDisplayString false
param *.ue*.nic.d2dCapable true
param *.ue*[0].macCellId 1
param *.ue*[0].masterId 1
param *.ue*[0].mobility.initFromDisplayString false
param *.ueD2D*.numTcpApps 1
param *.ueD2D*[*].d2dCapable true
param *.ueD2D*[0].d2dCapable false
param *.ueD2D*[0].numTcpApps 1
param *.ueD2DRx[0].mobility.initialX 310m
param *.ueD2DRx[0].mobility.initialY 350m
param *.ueD2DRx[0].tcpApp[*].localPort 1000
param *.ueD2DRx[0].tcpApp[*].typename "\"TCPSinkApp\""
param *.ueD2DTx*.nic.d2dPeerAddresses "\"ueD2DTx[1]\""
param *.ueD2DTx*.tcpApp[*].connectAddress "\"ueD2DTx[0]\""
param *.ueD2DTx*.tcpApp[*].localAddress "\"ueD2DTx\""
param *.ueD2DTx*.tcpApp[*].localPort 1000
param *.ueD2DTx*.tcpApp[*].sendBytes 1GiB
param *.ueD2DTx*.tcpApp[*].typename "\"TCPSessionApp\""
param *.ueD2DTx*.tcpApp[0].active true
param *.ueD2DTx*.tcpApp[0].connectPort 1000
param *.ueD2DTx*.tcpApp[0].tOpen uniform(0.010s,0.1s)
param *.ueD2DTx*.tcpApp[0].tSend uniform(0.15s,0.5s)
param *.ueD2DTx[0].mobility.initialX 290m
param *.ueD2DTx[0].mobility.initialY 350m
param *.ueD2DTx[0].tcpApp[*].localPort 1000
param *.ueD2DTx[0].tcpApp[*].sendBytes 1GiB
param *.ueD2DTx[0].tcpApp[*].typename "\"TCPSessionApp\""
param *.ueD2DTx[0].tcpApp[0].active true
param *.ueD2DTx[0].tcpApp[0].connectAddress "\"ueD2DRx[0]\""
param *.ueD2DTx[0].tcpApp[0].connectPort 1000
param *.ueD2DTx[0].tcpApp[0].localAddress "\"ueD2DTx[0]\""
param *.ueD2DTx[0].tcpApp[0].tOpen uniform(0.010s,0.1s)
param *.ueD2DTx[0].tcpApp[0].tSend uniform(0.15s,0.5s)

scalar . 	nEnb 	2
scalar . 	numUe 	20
scalar . 	pwr 	-60
scalar CAIN.eNodeB[0].x2App[0].client 	ums 	1452
scalar CAIN.eNodeB[1].x2App[0].client 	ums 	1452
scalar CAIN.server.networkLayer.arp 	failedARPResolution:count 	0
attr title  "ARP failed resolutions, count"
scalar CAIN.server.networkLayer.arp 	completedARPResolution:count 	0
attr title  "ARP completed resolutions, count"
scalar CAIN.server.networkLayer.arp 	initiatedARPResolution:count 	0
attr title  "ARP initiated resolutions, count"
scalar CAIN.server.networkLayer.arp 	sentReply:count 	0
attr title  "ARP replies sent, count"
scalar CAIN.server.networkLayer.arp 	sentReq:count 	0
attr title  "ARP request sent, count"
scalar CAIN.server.lo0.lo 	droppedPkBitError:count 	0
attr interpolationmode  none
attr source  dropPkBitError
attr title  "packets dropped/bit error, count"
scalar CAIN.server.lo0.lo 	droppedPkBitError:sum(packetBytes) 	0
attr interpolationmode  none
attr source  dropPkBitError
attr title  "packets dropped/bit error, sum(packetBytes)"
scalar CAIN.server.lo0.lo 	rcvdPkFromHL:count 	0
attr interpolationmode  none
attr source  packetReceivedFromUpper
attr title  "packets received from higher layer, count"
scalar CAIN.server.lo0.lo 	rcvdPkFromHL:sum(packetBytes) 	0
attr interpolationmode  none
attr source  packetReceivedFromUpper
attr title  "packets received from higher layer, sum(packetBytes)"
scalar CAIN.server.lo0.lo 	passedUpPk:count 	0
attr interpolationmode  none
attr source  packetSentToUpper
attr title  "packets passed to higher layer, count"
scalar CAIN.server.lo0.lo 	passedUpPk:sum(packetBytes) 	0
attr interpolationmode  none
attr source  packetSentToUpper
attr title  "packets passed to higher layer, sum(packetBytes)"
statistic CAIN.server.ppp[0].queue 	queueingTime:histogram
field count 0
field mean -nan
field stddev -nan
field sum 0
field sqrsum 0
field min -nan
field max -nan
attr interpolationmode  none
attr title  "queueing time, histogram"
bin	-INF	0
bin	-0.5	0
bin	-0.46666666666667	0
bin	-0.43333333333333	0
bin	-0.4	0
bin	-0.36666666666667	0
bin	-0.33333333333333	0
bin	-0.3	0
bin	-0.26666666666667	0
bin	-0.23333333333333	0
bin	-0.2	0
bin	-0.16666666666667	0
bin	-0.13333333333333	0
bin	-0.1	0
bin	-0.066666666666667	0
bin	-0.033333333333333	0
bin	0	0
bin	0.033333333333333	0
bin	0.066666666666667	0
bin	0.1	0
bin	0.13333333333333	0
bin	0.16666666666667	0
bin	0.2	0
bin	0.23333333333333	0
bin	0.26666666666667	0
bin	0.3	0
bin	0.33333333333333	0
bin	0.36666666666667	0
bin	0.4	0
bin	0.43333333333333	0
bin	0.46666666666667	0
bin	0.5	0
scalar CAIN.server.ppp[0].queue 	dropPk:count 	0
attr interpolationmode  none
attr source  dropPkByQueue
attr title  "dropped packets, count"
scalar CAIN.server.ppp[0].queue 	dropPk:sum(packetBytes) 	0
attr interpolationmode  none
attr source  dropPkByQueue
attr title  "dropped packets, sum(packetBytes)"
scalar CAIN.server.ppp[0].queue 	queueLength:max 	0
attr interpolationmode  sample-hold
attr title  "queue length, max"
scalar CAIN.server.ppp[0].queue 	queueLength:timeavg 	0
attr interpolationmode  sample-hold
attr title  "queue length, timeavg"
scalar CAIN.server.ppp[0].queue 	rcvdPk:count 	0
attr interpolationmode  none
attr title  "received packets, count"
scalar CAIN.server.ppp[0].queue 	rcvdPk:sum(packetBytes) 	0
attr interpolationmode  none
attr title  "received packets, sum(packetBytes)"
scalar CAIN.server.ppp[0].ppp 	txState:timeavg 	0
attr interpolationmode  sample-hold
attr title  "tx state, timeavg"
scalar CAIN.server.ppp[0].ppp 	droppedPkIfaceDown:count 	0
attr interpolationmode  none
attr source  dropPkIfaceDown
attr title  "packets dropped/interface down, count"
scalar CAIN.server.ppp[0].ppp 	droppedPkIfaceDown:sum(packetBytes) 	0
attr interpolationmode  none
attr source  dropPkIfaceDown
attr title  "packets dropped/interface down, sum(packetBytes)"
scalar CAIN.server.ppp[0].ppp 	droppedPkBitError:count 	0
attr interpolationmode  none
attr source  dropPkBitError
attr title  "packets dropped/bit error, count"
scalar CAIN.server.ppp[0].ppp 	droppedPkBitError:sum(packetBytes) 	0
attr interpolationmode  none
attr source  dropPkBitError
attr title  "packets dropped/bit error, sum(packetBytes)"
scalar CAIN.server.ppp[0].ppp 	rxPkOk:count 	0
attr interpolationmode  none
attr source  rxPkOk
attr title  "packets received OK, count"
scalar CAIN.server.ppp[0].ppp 	rxPkOk:sum(packetBytes) 	0
attr interpolationmode  none
attr source  rxPkOk
attr title  "packets received OK, sum(packetBytes)"
scalar CAIN.server.ppp[0].ppp 	txPk:count 	0
attr interpolationmode  none
attr source  packetSentToLower
attr title  "packets transmitted, count"
scalar CAIN.server.ppp[0].ppp 	txPk:sum(packetBytes) 	0
attr interpolationmode  none
attr source  packetSentToLower
attr title  "packets transmitted, sum(packetBytes)"
scalar CAIN.server.ppp[0].ppp 	rcvdPkFromHL:count 	0
attr interpolationmode  none
attr source  packetReceivedFromUpper
attr title  "packets received from higher layer, count"
scalar CAIN.server.ppp[0].ppp 	rcvdPkFromHL:sum(packetBytes) 	0
attr interpolationmode  none
attr source  packetReceivedFromUpper
attr title  "packets received from higher layer, sum(packetBytes)"
scalar CAIN.server.ppp[0].ppp 	passedUpPk:count 	0
attr interpolationmode  none
attr source  packetSentToUpper
attr title  "packets passed to higher layer, count"
scalar CAIN.server.ppp[0].ppp 	passedUpPk:sum(packetBytes) 	0
attr interpolationmode  none
attr source  packetSentToUpper
attr title  "packets passed to higher layer, sum(packetBytes)"
scalar CAIN.router.networkLayer.arp 	failedARPResolution:count 	0
attr title  "ARP failed resolutions, count"
scalar CAIN.router.networkLayer.arp 	completedARPResolution:count 	0
attr title  "ARP completed resolutions, count"
scalar CAIN.router.networkLayer.arp 	initiatedARPResolution:count 	0
attr title  "ARP initiated resolutions, count"
scalar CAIN.router.networkLayer.arp 	sentReply:count 	0
attr title  "ARP replies sent, count"
scalar CAIN.router.networkLayer.arp 	sentReq:count 	0
attr title  "ARP request sent, count"
scalar CAIN.router.lo0.lo 	droppedPkBitError:count 	0
attr interpolationmode  none
attr source  dropPkBitError
attr title  "packets dropped/bit error, count"
scalar CAIN.router.lo0.lo 	droppedPkBitError:sum(packetBytes) 	0
attr interpolationmode  none
attr source  dropPkBitError
attr title  "packets dropped/bit error, sum(packetBytes)"
scalar CAIN.router.lo0.lo 	rcvdPkFromHL:count 	0
attr interpolationmode  none
attr source  packetReceivedFromUpper
attr title  "packets received from higher layer, count"
scalar CAIN.router.lo0.lo 	rcvdPkFromHL:sum(packetBytes) 	0
attr interpolationmode  none
attr source  packetReceivedFromUpper
attr title  "packets received from higher layer, sum(packetBytes)"
scalar CAIN.router.lo0.lo 	passedUpPk:count 	0
attr interpolationmode  none
attr source  packetSentToUpper
attr title  "packets passed to higher layer, count"
scalar CAIN.router.lo0.lo 	passedUpPk:sum(packetBytes) 	0
attr interpolationmode  none
attr source  packetSentToUpper
attr title  "packets passed to higher layer, sum(packetBytes)"
statistic CAIN.router.ppp[0].queue 	queueingTime:histogram
field count 0
field mean -nan
field stddev -nan
field sum 0
field sqrsum 0
field min -nan
field max -nan
attr interpolationmode  none
attr title  "queueing time, histogram"
bin	-INF	0
bin	-0.5	0
bin	-0.46666666666667	0
bin	-0.43333333333333	0
bin	-0.4	0
bin	-0.36666666666667	0
bin	-0.33333333333333	0
bin	-0.3	0
bin	-0.26666666666667	0
bin	-0.23333333333333	0
bin	-0.2	0
bin	-0.16666666666667	0
bin	-0.13333333333333	0
bin	-0.1	0
bin	-0.066666666666667	0
bin	-0.033333333333333	0
bin	0	0
bin	0.033333333333333	0
bin	0.066666666666667	0
bin	0.1	0
bin	0.13333333333333	0
bin	0.16666666666667	0
bin	0.2	0
bin	0.23333333333333	0
bin	0.26666666666667	0
bin	0.3	0
bin	0.33333333333333	0
bin	0.36666666666667	0
bin	0.4	0
bin	0.43333333333333	0
bin	0.46666666666667	0
bin	0.5	0
scalar CAIN.router.ppp[0].queue 	dropPk:count 	0
attr interpolationmode  none
attr source  dropPkByQueue
attr title  "dropped packets, count"
scalar CAIN.router.ppp[0].queue 	dropPk:sum(packetBytes) 	0
attr interpolationmode  none
attr source  dropPkByQueue
attr title  "dropped packets, sum(packetBytes)"
scalar CAIN.router.ppp[0].queue 	queueLength:max 	0
attr interpolationmode  sample-hold
attr title  "queue length, max"
scalar CAIN.router.ppp[0].queue 	queueLength:timeavg 	0
attr interpolationmode  sample-hold
attr title  "queue length, timeavg"
scalar CAIN.router.ppp[0].queue 	rcvdPk:count 	0
attr interpolationmode  none
attr title  "received packets, count"
scalar CAIN.router.ppp[0].queue 	rcvdPk:sum(packetBytes) 	0
attr interpolationmode  none
attr title  "received packets, sum(packetBytes)"
scalar CAIN.router.ppp[0].ppp 	txState:timeavg 	0
attr interpolationmode  sample-hold
attr title  "tx state, timeavg"
scalar CAIN.router.ppp[0].ppp 	droppedPkIfaceDown:count 	0
attr interpolationmode  none
attr source  dropPkIfaceDown
attr title  "packets dropped/interface down, count"
scalar CAIN.router.ppp[0].ppp 	droppedPkIfaceDown:sum(packetBytes) 	0
attr interpolationmode  none
attr source  dropPkIfaceDown
attr title  "packets dropped/interface down, sum(packetBytes)"
scalar CAIN.router.ppp[0].ppp 	droppedPkBitError:count 	0
attr interpolationmode  none
attr source  dropPkBitError
attr title  "packets dropped/bit error, count"
scalar CAIN.router.ppp[0].ppp 	droppedPkBitError:sum(packetBytes) 	0
attr interpolationmode  none
attr source  dropPkBitError
attr title  "packets dropped/bit error, sum(packetBytes)"
scalar CAIN.router.ppp[0].ppp 	rxPkOk:count 	0
attr interpolationmode  none
attr source  rxPkOk
attr title  "packets received OK, count"
scalar CAIN.router.ppp[0].ppp 	rxPkOk:sum(packetBytes) 	0
attr interpolationmode  none
attr source  rxPkOk
attr title  "packets received OK, sum(packetBytes)"
scalar CAIN.router.ppp[0].ppp 	txPk:count 	0
attr interpolationmode  none
attr source  packetSentToLower
attr title  "packets transmitted, count"
scalar CAIN.router.ppp[0].ppp 	txPk:sum(packetBytes) 	0
attr interpolationmode  none
attr source  packetSentToLower
attr title  "packets transmitted, sum(packetBytes)"
scalar CAIN.router.ppp[0].ppp 	rcvdPkFromHL:count 	0
attr interpolationmode  none
attr source  packetReceivedFromUpper
attr title  "packets received from higher layer, count"
scalar CAIN.router.ppp[0].ppp 	rcvdPkFromHL:sum(packetBytes) 	0
attr interpolationmode  none
attr source  packetReceivedFromUpper
attr title  "packets received from higher layer, sum(packetBytes)"
scalar CAIN.router.ppp[0].ppp 	passedUpPk:count 	0
attr interpolationmode  none
attr source  packetSentToUpper
attr title  "packets passed to higher layer, count"
scalar CAIN.router.ppp[0].ppp 	passedUpPk:sum(packetBytes) 	0
attr interpolationmode  none
attr source  packetSentToUpper
attr title  "packets passed to higher layer, sum(packetBytes)"
statistic CAIN.router.ppp[1].queue 	queueingTime:histogram
field count 0
field mean -nan
field stddev -nan
field sum 0
field sqrsum 0
field min -nan
field max -nan
attr interpolationmode  none
attr title  "queueing time, histogram"
bin	-INF	0
bin	-0.5	0
bin	-0.46666666666667	0
bin	-0.43333333333333	0
bin	-0.4	0
bin	-0.36666666666667	0
bin	-0.33333333333333	0
bin	-0.3	0
bin	-0.26666666666667	0
bin	-0.23333333333333	0
bin	-0.2	0
bin	-0.16666666666667	0
bin	-0.13333333333333	0
bin	-0.1	0
bin	-0.066666666666667	0
bin	-0.033333333333333	0
bin	0	0
bin	0.033333333333333	0
bin	0.066666666666667	0
bin	0.1	0
bin	0.13333333333333	0
bin	0.16666666666667	0
bin	0.2	0
bin	0.23333333333333	0
bin	0.26666666666667	0
bin	0.3	0
bin	0.33333333333333	0
bin	0.36666666666667	0
bin	0.4	0
bin	0.43333333333333	0
bin	0.46666666666667	0
bin	0.5	0
scalar CAIN.router.ppp[1].queue 	dropPk:count 	0
attr interpolationmode  none
attr source  dropPkByQueue
attr title  "dropped packets, count"
scalar CAIN.router.ppp[1].queue 	dropPk:sum(packetBytes) 	0
attr interpolationmode  none
attr source  dropPkByQueue
attr title  "dropped packets, sum(packetBytes)"
scalar CAIN.router.ppp[1].queue 	queueLength:max 	0
attr interpolationmode  sample-hold
attr title  "queue length, max"
scalar CAIN.router.ppp[1].queue 	queueLength:timeavg 	0
attr interpolationmode  sample-hold
attr title  "queue length, timeavg"
scalar CAIN.router.ppp[1].queue 	rcvdPk:count 	0
attr interpolationmode  none
attr title  "received packets, count"
scalar CAIN.router.ppp[1].queue 	rcvdPk:sum(packetBytes) 	0
attr interpolationmode  none
attr title  "received packets, sum(packetBytes)"
scalar CAIN.router.ppp[1].ppp 	txState:timeavg 	0
attr interpolationmode  sample-hold
attr title  "tx state, timeavg"
scalar CAIN.router.ppp[1].ppp 	droppedPkIfaceDown:count 	0
attr interpolationmode  none
attr source  dropPkIfaceDown
attr title  "packets dropped/interface down, count"
scalar CAIN.router.ppp[1].ppp 	droppedPkIfaceDown:sum(packetBytes) 	0
attr interpolationmode  none
attr source  dropPkIfaceDown
attr title  "packets dropped/interface down, sum(packetBytes)"
scalar CAIN.router.ppp[1].ppp 	droppedPkBitError:count 	0
attr interpolationmode  none
attr source  dropPkBitError
attr title  "packets dropped/bit error, count"
scalar CAIN.router.ppp[1].ppp 	droppedPkBitError:sum(packetBytes) 	0
attr interpolationmode  none
attr source  dropPkBitError
attr title  "packets dropped/bit error, sum(packetBytes)"
scalar CAIN.router.ppp[1].ppp 	rxPkOk:count 	0
attr interpolationmode  none
attr source  rxPkOk
attr title  "packets received OK, count"
scalar CAIN.router.ppp[1].ppp 	rxPkOk:sum(packetBytes) 	0
attr interpolationmode  none
attr source  rxPkOk
attr title  "packets received OK, sum(packetBytes)"
scalar CAIN.router.ppp[1].ppp 	txPk:count 	0
attr interpolationmode  none
attr source  packetSentToLower
attr title  "packets transmitted, count"
scalar CAIN.router.ppp[1].ppp 	txPk:sum(packetBytes) 	0
attr interpolationmode  none
attr source  packetSentToLower
attr title  "packets transmitted, sum(packetBytes)"
scalar CAIN.router.ppp[1].ppp 	rcvdPkFromHL:count 	0
attr interpolationmode  none
attr source  packetReceivedFromUpper
attr title  "packets received from higher layer, count"
scalar CAIN.router.ppp[1].ppp 	rcvdPkFromHL:sum(packetBytes) 	0
attr interpolationmode  none
attr source  packetReceivedFromUpper
attr title  "packets received from higher layer, sum(packetBytes)"
scalar CAIN.router.ppp[1].ppp 	passedUpPk:count 	0
attr interpolationmode  none
attr source  packetSentToUpper
attr title  "packets passed to higher layer, count"
scalar CAIN.router.ppp[1].ppp 	passedUpPk:sum(packetBytes) 	0
attr interpolationmode  none
attr source  packetSentToUpper
attr title  "packets passed to higher layer, sum(packetBytes)"
scalar CAIN.pgw.networkLayer.arp 	failedARPResolution:count 	0
attr title  "ARP failed resolutions, count"
scalar CAIN.pgw.networkLayer.arp 	completedARPResolution:count 	0
attr title  "ARP completed resolutions, count"
scalar CAIN.pgw.networkLayer.arp 	initiatedARPResolution:count 	0
attr title  "ARP initiated resolutions, count"
scalar CAIN.pgw.networkLayer.arp 	sentReply:count 	0
attr title  "ARP replies sent, count"
scalar CAIN.pgw.networkLayer.arp 	sentReq:count 	0
attr title  "ARP request sent, count"
scalar CAIN.pgw.lo0.lo 	droppedPkBitError:count 	0
attr interpolationmode  none
attr source  dropPkBitError
attr title  "packets dropped/bit error, count"
scalar CAIN.pgw.lo0.lo 	droppedPkBitError:sum(packetBytes) 	0
attr interpolationmode  none
attr source  dropPkBitError
attr title  "packets dropped/bit error, sum(packetBytes)"
scalar CAIN.pgw.lo0.lo 	rcvdPkFromHL:count 	0
attr interpolationmode  none
attr source  packetReceivedFromUpper
attr title  "packets received from higher layer, count"
scalar CAIN.pgw.lo0.lo 	rcvdPkFromHL:sum(packetBytes) 	0
attr interpolationmode  none
attr source  packetReceivedFromUpper
attr title  "packets received from higher layer, sum(packetBytes)"
scalar CAIN.pgw.lo0.lo 	passedUpPk:count 	0
attr interpolationmode  none
attr source  packetSentToUpper
attr title  "packets passed to higher layer, count"
scalar CAIN.pgw.lo0.lo 	passedUpPk:sum(packetBytes) 	0
attr interpolationmode  none
attr source  packetSentToUpper
attr title  "packets passed to higher layer, sum(packetBytes)"
statistic CAIN.pgw.ppp[0].queue 	queueingTime:histogram
field count 0
field mean -nan
field stddev -nan
field sum 0
field sqrsum 0
field min -nan
field max -nan
attr interpolationmode  none
attr title  "queueing time, histogram"
bin	-INF	0
bin	-0.5	0
bin	-0.46666666666667	0
bin	-0.43333333333333	0
bin	-0.4	0
bin	-0.36666666666667	0
bin	-0.33333333333333	0
bin	-0.3	0
bin	-0.26666666666667	0
bin	-0.23333333333333	0
bin	-0.2	0
bin	-0.16666666666667	0
bin	-0.13333333333333	0
bin	-0.1	0
bin	-0.066666666666667	0
bin	-0.033333333333333	0
bin	0	0
bin	0.033333333333333	0
bin	0.066666666666667	0
bin	0.1	0
bin	0.13333333333333	0
bin	0.16666666666667	0
bin	0.2	0
bin	0.23333333333333	0
bin	0.26666666666667	0
bin	0.3	0
bin	0.33333333333333	0
bin	0.36666666666667	0
bin	0.4	0
bin	0.43333333333333	0
bin	0.46666666666667	0
bin	0.5	0
scalar CAIN.pgw.ppp[0].queue 	dropPk:count 	0
attr interpolationmode  none
attr source  dropPkByQueue
attr title  "dropped packets, count"
scalar CAIN.pgw.ppp[0].queue 	dropPk:sum(packetBytes) 	0
attr interpolationmode  none
attr source  dropPkByQueue
attr title  "dropped packets, sum(packetBytes)"
scalar CAIN.pgw.ppp[0].queue 	queueLength:max 	0
attr interpolationmode  sample-hold
attr title  "queue length, max"
scalar CAIN.pgw.ppp[0].queue 	queueLength:timeavg 	0
attr interpolationmode  sample-hold
attr title  "queue length, timeavg"
scalar CAIN.pgw.ppp[0].queue 	rcvdPk:count 	0
attr interpolationmode  none
attr title  "received packets, count"
scalar CAIN.pgw.ppp[0].queue 	rcvdPk:sum(packetBytes) 	0
attr interpolationmode  none
attr title  "received packets, sum(packetBytes)"
scalar CAIN.pgw.ppp[0].ppp 	txState:timeavg 	0
attr interpolationmode  sample-hold
attr title  "tx state, timeavg"
scalar CAIN.pgw.ppp[0].ppp 	droppedPkIfaceDown:count 	0
attr interpolationmode  none
attr source  dropPkIfaceDown
attr title  "packets dropped/interface down, count"
scalar CAIN.pgw.ppp[0].ppp 	droppedPkIfaceDown:sum(packetBytes) 	0
attr interpolationmode  none
attr source  dropPkIfaceDown
attr title  "packets dropped/interface down, sum(packetBytes)"
scalar CAIN.pgw.ppp[0].ppp 	droppedPkBitError:count 	0
attr interpolationmode  none
attr source  dropPkBitError
attr title  "packets dropped/bit error, count"
scalar CAIN.pgw.ppp[0].ppp 	droppedPkBitError:sum(packetBytes) 	0
attr interpolationmode  none
attr source  dropPkBitError
attr title  "packets dropped/bit error, sum(packetBytes)"
scalar CAIN.pgw.ppp[0].ppp 	rxPkOk:count 	0
attr interpolationmode  none
attr source  rxPkOk
attr title  "packets received OK, count"
scalar CAIN.pgw.ppp[0].ppp 	rxPkOk:sum(packetBytes) 	0
attr interpolationmode  none
attr source  rxPkOk
attr title  "packets received OK, sum(packetBytes)"
scalar CAIN.pgw.ppp[0].ppp 	txPk:count 	0
attr interpolationmode  none
attr source  packetSentToLower
attr title  "packets transmitted, count"
scalar CAIN.pgw.ppp[0].ppp 	txPk:sum(packetBytes) 	0
attr interpolationmode  none
attr source  packetSentToLower
attr title  "packets transmitted, sum(packetBytes)"
scalar CAIN.pgw.ppp[0].ppp 	rcvdPkFromHL:count 	0
attr interpolationmode  none
attr source  packetReceivedFromUpper
attr title  "packets received from higher layer, count"
scalar CAIN.pgw.ppp[0].ppp 	rcvdPkFromHL:sum(packetBytes) 	0
attr interpolationmode  none
attr source  packetReceivedFromUpper
attr title  "packets received from higher layer, sum(packetBytes)"
scalar CAIN.pgw.ppp[0].ppp 	passedUpPk:count 	0
attr interpolationmode  none
attr source  packetSentToUpper
attr title  "packets passed to higher layer, count"
scalar CAIN.pgw.ppp[0].ppp 	passedUpPk:sum(packetBytes) 	0
attr interpolationmode  none
attr source  packetSentToUpper
attr title  "packets passed to higher layer, sum(packetBytes)"
statistic CAIN.pgw.ppp[1].queue 	queueingTime:histogram
field count 0
field mean -nan
field stddev -nan
field sum 0
field sqrsum 0
field min -nan
field max -nan
attr interpolationmode  none
attr title  "queueing time, histogram"
bin	-INF	0
bin	-0.5	0
bin	-0.46666666666667	0
bin	-0.43333333333333	0
bin	-0.4	0
bin	-0.36666666666667	0
bin	-0.33333333333333	0
bin	-0.3	0
bin	-0.26666666666667	0
bin	-0.23333333333333	0
bin	-0.2	0
bin	-0.16666666666667	0
bin	-0.13333333333333	0
bin	-0.1	0
bin	-0.066666666666667	0
bin	-0.033333333333333	0
bin	0	0
bin	0.033333333333333	0
bin	0.066666666666667	0
bin	0.1	0
bin	0.13333333333333	0
bin	0.16666666666667	0
bin	0.2	0
bin	0.23333333333333	0
bin	0.26666666666667	0
bin	0.3	0
bin	0.33333333333333	0
bin	0.36666666666667	0
bin	0.4	0
bin	0.43333333333333	0
bin	0.46666666666667	0
bin	0.5	0
scalar CAIN.pgw.ppp[1].queue 	dropPk:count 	0
attr interpolationmode  none
attr source  dropPkByQueue
attr title  "dropped packets, count"
scalar CAIN.pgw.ppp[1].queue 	dropPk:sum(packetBytes) 	0
attr interpolationmode  none
attr source  dropPkByQueue
attr title  "dropped packets, sum(packetBytes)"
scalar CAIN.pgw.ppp[1].queue 	queueLength:max 	0
attr interpolationmode  sample-hold
attr title  "queue length, max"
scalar CAIN.pgw.ppp[1].queue 	queueLength:timeavg 	0
attr interpolationmode  sample-hold
attr title  "queue length, timeavg"
scalar CAIN.pgw.ppp[1].queue 	rcvdPk:count 	0
attr interpolationmode  none
attr title  "received packets, count"
scalar CAIN.pgw.ppp[1].queue 	rcvdPk:sum(packetBytes) 	0
attr interpolationmode  none
attr title  "received packets, sum(packetBytes)"
scalar CAIN.pgw.ppp[1].ppp 	txState:timeavg 	0
attr interpolationmode  sample-hold
attr title  "tx state, timeavg"
scalar CAIN.pgw.ppp[1].ppp 	droppedPkIfaceDown:count 	0
attr interpolationmode  none
attr source  dropPkIfaceDown
attr title  "packets dropped/interface down, count"
scalar CAIN.pgw.ppp[1].ppp 	droppedPkIfaceDown:sum(packetBytes) 	0
attr interpolationmode  none
attr source  dropPkIfaceDown
attr title  "packets dropped/interface down, sum(packetBytes)"
scalar CAIN.pgw.ppp[1].ppp 	droppedPkBitError:count 	0
attr interpolationmode  none
attr source  dropPkBitError
attr title  "packets dropped/bit error, count"
scalar CAIN.pgw.ppp[1].ppp 	droppedPkBitError:sum(packetBytes) 	0
attr interpolationmode  none
attr source  dropPkBitError
attr title  "packets dropped/bit error, sum(packetBytes)"
scalar CAIN.pgw.ppp[1].ppp 	rxPkOk:count 	0
attr interpolationmode  none
attr source  rxPkOk
attr title  "packets received OK, count"
scalar CAIN.pgw.ppp[1].ppp 	rxPkOk:sum(packetBytes) 	0
attr interpolationmode  none
attr source  rxPkOk
attr title  "packets received OK, sum(packetBytes)"
scalar CAIN.pgw.ppp[1].ppp 	txPk:count 	0
attr interpolationmode  none
attr source  packetSentToLower
attr title  "packets transmitted, count"
scalar CAIN.pgw.ppp[1].ppp 	txPk:sum(packetBytes) 	0
attr interpolationmode  none
attr source  packetSentToLower
attr title  "packets transmitted, sum(packetBytes)"
scalar CAIN.pgw.ppp[1].ppp 	rcvdPkFromHL:count 	0
attr interpolationmode  none
attr source  packetReceivedFromUpper
attr title  "packets received from higher layer, count"
scalar CAIN.pgw.ppp[1].ppp 	rcvdPkFromHL:sum(packetBytes) 	0
attr interpolationmode  none
attr source  packetReceivedFromUpper
attr title  "packets received from higher layer, sum(packetBytes)"
scalar CAIN.pgw.ppp[1].ppp 	passedUpPk:count 	0
attr interpolationmode  none
attr source  packetSentToUpper
attr title  "packets passed to higher layer, count"
scalar CAIN.pgw.ppp[1].ppp 	passedUpPk:sum(packetBytes) 	0
attr interpolationmode  none
attr source  packetSentToUpper
attr title  "packets passed to higher layer, sum(packetBytes)"
statistic CAIN.pgw.pppInterface.queue 	queueingTime:histogram
field count 0
field mean -nan
field stddev -nan
field sum 0
field sqrsum 0
field min -nan
field max -nan
attr interpolationmode  none
attr title  "queueing time, histogram"
bin	-INF	0
bin	-0.5	0
bin	-0.46666666666667	0
bin	-0.43333333333333	0
bin	-0.4	0
bin	-0.36666666666667	0
bin	-0.33333333333333	0
bin	-0.3	0
bin	-0.26666666666667	0
bin	-0.23333333333333	0
bin	-0.2	0
bin	-0.16666666666667	0
bin	-0.13333333333333	0
bin	-0.1	0
bin	-0.066666666666667	0
bin	-0.033333333333333	0
bin	0	0
bin	0.033333333333333	0
bin	0.066666666666667	0
bin	0.1	0
bin	0.13333333333333	0
bin	0.16666666666667	0
bin	0.2	0
bin	0.23333333333333	0
bin	0.26666666666667	0
bin	0.3	0
bin	0.33333333333333	0
bin	0.36666666666667	0
bin	0.4	0
bin	0.43333333333333	0
bin	0.46666666666667	0
bin	0.5	0
scalar CAIN.pgw.pppInterface.queue 	dropPk:count 	0
attr interpolationmode  none
attr source  dropPkByQueue
attr title  "dropped packets, count"
scalar CAIN.pgw.pppInterface.queue 	dropPk:sum(packetBytes) 	0
attr interpolationmode  none
attr source  dropPkByQueue
attr title  "dropped packets, sum(packetBytes)"
scalar CAIN.pgw.pppInterface.queue 	queueLength:max 	0
attr interpolationmode  sample-hold
attr title  "queue length, max"
scalar CAIN.pgw.pppInterface.queue 	queueLength:timeavg 	0
attr interpolationmode  sample-hold
attr title  "queue length, timeavg"
scalar CAIN.pgw.pppInterface.queue 	rcvdPk:count 	0
attr interpolationmode  none
attr title  "received packets, count"
scalar CAIN.pgw.pppInterface.queue 	rcvdPk:sum(packetBytes) 	0
attr interpolationmode  none
attr title  "received packets, sum(packetBytes)"
scalar CAIN.pgw.pppInterface.ppp 	txState:timeavg 	0
attr interpolationmode  sample-hold
attr title  "tx state, timeavg"
scalar CAIN.pgw.pppInterface.ppp 	droppedPkIfaceDown:count 	0
attr interpolationmode  none
attr source  dropPkIfaceDown
attr title  "packets dropped/interface down, count"
scalar CAIN.pgw.pppInterface.ppp 	droppedPkIfaceDown:sum(packetBytes) 	0
attr interpolationmode  none
attr source  dropPkIfaceDown
attr title  "packets dropped/interface down, sum(packetBytes)"
scalar CAIN.pgw.pppInterface.ppp 	droppedPkBitError:count 	0
attr interpolationmode  none
attr source  dropPkBitError
attr title  "packets dropped/bit error, count"
scalar CAIN.pgw.pppInterface.ppp 	droppedPkBitError:sum(packetBytes) 	0
attr interpolationmode  none
attr source  dropPkBitError
attr title  "packets dropped/bit error, sum(packetBytes)"
scalar CAIN.pgw.pppInterface.ppp 	rxPkOk:count 	0
attr interpolationmode  none
attr source  rxPkOk
attr title  "packets received OK, count"
scalar CAIN.pgw.pppInterface.ppp 	rxPkOk:sum(packetBytes) 	0
attr interpolationmode  none
attr source  rxPkOk
attr title  "packets received OK, sum(packetBytes)"
scalar CAIN.pgw.pppInterface.ppp 	txPk:count 	0
attr interpolationmode  none
attr source  packetSentToLower
attr title  "packets transmitted, count"
scalar CAIN.pgw.pppInterface.ppp 	txPk:sum(packetBytes) 	0
attr interpolationmode  none
attr source  packetSentToLower
attr title  "packets transmitted, sum(packetBytes)"
scalar CAIN.pgw.pppInterface.ppp 	rcvdPkFromHL:count 	0
attr interpolationmode  none
attr source  packetReceivedFromUpper
attr title  "packets received from higher layer, count"
scalar CAIN.pgw.pppInterface.ppp 	rcvdPkFromHL:sum(packetBytes) 	0
attr interpolationmode  none
attr source  packetReceivedFromUpper
attr title  "packets received from higher layer, sum(packetBytes)"
scalar CAIN.pgw.pppInterface.ppp 	passedUpPk:count 	0
attr interpolationmode  none
attr source  packetSentToUpper
attr title  "packets passed to higher layer, count"
scalar CAIN.pgw.pppInterface.ppp 	passedUpPk:sum(packetBytes) 	0
attr interpolationmode  none
attr source  packetSentToUpper
attr title  "packets passed to higher layer, sum(packetBytes)"
scalar CAIN.pgw.udp 	droppedPkBadChecksum:count 	0
attr interpolationmode  none
attr title  "packets dropped (checksum error), count"
scalar CAIN.pgw.udp 	droppedPkWrongPort:count 	0
attr interpolationmode  none
attr title  "packets dropped (wrong port), count"
scalar CAIN.pgw.udp 	passedUpPk:count 	0
attr interpolationmode  none
attr title  "packets passed up, count"
scalar CAIN.pgw.udp 	rcvdPk:count 	0
attr interpolationmode  none
attr source  rcvdPk
attr title  "packets received, count"
scalar CAIN.pgw.udp 	rcvdPk:sum(packetBytes) 	0
attr interpolationmode  none
attr source  rcvdPk
attr title  "packets received, sum(packetBytes)"
scalar CAIN.pgw.udp 	sentPk:count 	0
attr interpolationmode  none
attr source  sentPk
attr title  "packets sent, count"
scalar CAIN.pgw.udp 	sentPk:sum(packetBytes) 	0
attr interpolationmode  none
attr source  sentPk
attr title  "packets sent, sum(packetBytes)"
scalar CAIN.eNodeB[0].nic.pdcpRrc 	sentPacketToLowerLayer:count 	0
attr interpolationmode  none
attr source  sentPacketToLowerLayer
scalar CAIN.eNodeB[0].nic.pdcpRrc 	sentPacketToLowerLayer:sum(packetBytes) 	0
attr interpolationmode  none
attr source  sentPacketToLowerLayer
scalar CAIN.eNodeB[0].nic.pdcpRrc 	sentPacketToUpperLayer:count 	0
attr interpolationmode  none
attr source  sentPacketToUpperLayer
scalar CAIN.eNodeB[0].nic.pdcpRrc 	sentPacketToUpperLayer:sum(packetBytes) 	0
attr interpolationmode  none
attr source  sentPacketToUpperLayer
scalar CAIN.eNodeB[0].nic.pdcpRrc 	receivedPacketFromLowerLayer:count 	0
attr interpolationmode  none
attr source  receivedPacketFromLowerLayer
scalar CAIN.eNodeB[0].nic.pdcpRrc 	receivedPacketFromLowerLayer:sum(packetBytes) 	0
attr interpolationmode  none
attr source  receivedPacketFromLowerLayer
scalar CAIN.eNodeB[0].nic.pdcpRrc 	receivedPacketFromUpperLayer:count 	0
attr interpolationmode  none
attr source  receivedPacketFromUpperLayer
scalar CAIN.eNodeB[0].nic.pdcpRrc 	receivedPacketFromUpperLayer:sum(packetBytes) 	0
attr interpolationmode  none
attr source  receivedPacketFromUpperLayer
scalar CAIN.eNodeB[0].nic.mac 	cqiDlMuMimo4:lteAvg 	7.0137972405519
attr source  cqiDlMuMimo4
attr title  "Average cqi MuMimo band 4, lteAvg"
attr unit  cqi
scalar CAIN.eNodeB[0].nic.mac 	cqiDlMuMimo4:lteAvg 	2.2171565686863
attr source  cqiDlMuMimo4
attr title  "Average cqi MuMimo band 4, lteAvg"
attr unit  cqi
scalar CAIN.eNodeB[0].nic.mac 	cqiDlMuMimo4:lteAvg 	3.2627474505099
attr source  cqiDlMuMimo4
attr title  "Average cqi MuMimo band 4, lteAvg"
attr unit  cqi
scalar CAIN.eNodeB[0].nic.mac 	cqiDlMuMimo4:lteAvg 	2.623275344931
attr source  cqiDlMuMimo4
attr title  "Average cqi MuMimo band 4, lteAvg"
attr unit  cqi
scalar CAIN.eNodeB[0].nic.mac 	cqiDlMuMimo4:lteAvg 	2
attr source  cqiDlMuMimo4
attr title  "Average cqi MuMimo band 4, lteAvg"
attr unit  cqi
scalar CAIN.eNodeB[0].nic.mac 	cqiDlMuMimo4:lteAvg 	2.012
attr source  cqiDlMuMimo4
attr title  "Average cqi MuMimo band 4, lteAvg"
attr unit  cqi
scalar CAIN.eNodeB[0].nic.mac 	cqiDlMuMimo4:lteAvg 	2.001799640072
attr source  cqiDlMuMimo4
attr title  "Average cqi MuMimo band 4, lteAvg"
attr unit  cqi
scalar CAIN.eNodeB[0].nic.mac 	cqiDlMuMimo4:lteAvg 	2
attr source  cqiDlMuMimo4
attr title  "Average cqi MuMimo band 4, lteAvg"
attr unit  cqi
scalar CAIN.eNodeB[0].nic.mac 	cqiDlMuMimo4:lteAvg 	2.0779844031194
attr source  cqiDlMuMimo4
attr title  "Average cqi MuMimo band 4, lteAvg"
attr unit  cqi
scalar CAIN.eNodeB[0].nic.mac 	cqiDlMuMimo4:lteAvg 	6.5563725490196
attr source  cqiDlMuMimo4
attr title  "Average cqi MuMimo band 4, lteAvg"
attr unit  cqi
scalar CAIN.eNodeB[0].nic.mac 	cqiDlMuMimo4:lteAvg 	2.4421115776845
attr source  cqiDlMuMimo4
attr title  "Average cqi MuMimo band 4, lteAvg"
attr unit  cqi
scalar CAIN.eNodeB[0].nic.mac 	cqiDlMuMimo3:lteAvg 	2.3071385722855
attr source  cqiDlMuMimo3
attr title  "Average cqi MuMimo band 3, lteAvg"
attr unit  cqi
scalar CAIN.eNodeB[0].nic.mac 	cqiDlMuMimo3:lteAvg 	8.9280143971206
attr source  cqiDlMuMimo3
attr title  "Average cqi MuMimo band 3, lteAvg"
attr unit  cqi
scalar CAIN.eNodeB[0].nic.mac 	cqiDlMuMimo3:lteAvg 	4.8836232753449
attr source  cqiDlMuMimo3
attr title  "Average cqi MuMimo band 3, lteAvg"
attr unit  cqi
scalar CAIN.eNodeB[0].nic.mac 	cqiDlMuMimo3:lteAvg 	3.5614877024595
attr source  cqiDlMuMimo3
attr title  "Average cqi MuMimo band 3, lteAvg"
attr unit  cqi
scalar CAIN.eNodeB[0].nic.mac 	cqiDlMuMimo3:lteAvg 	2
attr source  cqiDlMuMimo3
attr title  "Average cqi MuMimo band 3, lteAvg"
attr unit  cqi
scalar CAIN.eNodeB[0].nic.mac 	cqiDlMuMimo3:lteAvg 	2.016
attr source  cqiDlMuMimo3
attr title  "Average cqi MuMimo band 3, lteAvg"
attr unit  cqi
scalar CAIN.eNodeB[0].nic.mac 	cqiDlMuMimo3:lteAvg 	2.004799040192
attr source  cqiDlMuMimo3
attr title  "Average cqi MuMimo band 3, lteAvg"
attr unit  cqi
scalar CAIN.eNodeB[0].nic.mac 	cqiDlMuMimo3:lteAvg 	2
attr source  cqiDlMuMimo3
attr title  "Average cqi MuMimo band 3, lteAvg"
attr unit  cqi
scalar CAIN.eNodeB[0].nic.mac 	cqiDlMuMimo3:lteAvg 	2.9544091181764
attr source  cqiDlMuMimo3
attr title  "Average cqi MuMimo band 3, lteAvg"
attr unit  cqi
scalar CAIN.eNodeB[0].nic.mac 	cqiDlMuMimo3:lteAvg 	10.637254901961
attr source  cqiDlMuMimo3
attr title  "Average cqi MuMimo band 3, lteAvg"
attr unit  cqi
scalar CAIN.eNodeB[0].nic.mac 	cqiDlMuMimo3:lteAvg 	2.4589082183563
attr source  cqiDlMuMimo3
attr title  "Average cqi MuMimo band 3, lteAvg"
attr unit  cqi
scalar CAIN.eNodeB[0].nic.mac 	cqiDlMuMimo2:lteAvg 	3.2999400119976
attr source  cqiDlMuMimo2
attr title  "Average cqi MuMimo band 2, lteAvg"
attr unit  cqi
scalar CAIN.eNodeB[0].nic.mac 	cqiDlMuMimo2:lteAvg 	6.2405518896221
attr source  cqiDlMuMimo2
attr title  "Average cqi MuMimo band 2, lteAvg"
attr unit  cqi
scalar CAIN.eNodeB[0].nic.mac 	cqiDlMuMimo2:lteAvg 	2.0635872825435
attr source  cqiDlMuMimo2
attr title  "Average cqi MuMimo band 2, lteAvg"
attr unit  cqi
scalar CAIN.eNodeB[0].nic.mac 	cqiDlMuMimo2:lteAvg 	2.119976004799
attr source  cqiDlMuMimo2
attr title  "Average cqi MuMimo band 2, lteAvg"
attr unit  cqi
scalar CAIN.eNodeB[0].nic.mac 	cqiDlMuMimo2:lteAvg 	2.001199760048
attr source  cqiDlMuMimo2
attr title  "Average cqi MuMimo band 2, lteAvg"
attr unit  cqi
scalar CAIN.eNodeB[0].nic.mac 	cqiDlMuMimo2:lteAvg 	2.9
attr source  cqiDlMuMimo2
attr title  "Average cqi MuMimo band 2, lteAvg"
attr unit  cqi
scalar CAIN.eNodeB[0].nic.mac 	cqiDlMuMimo2:lteAvg 	2.002399520096
attr source  cqiDlMuMimo2
attr title  "Average cqi MuMimo band 2, lteAvg"
attr unit  cqi
scalar CAIN.eNodeB[0].nic.mac 	cqiDlMuMimo2:lteAvg 	2
attr source  cqiDlMuMimo2
attr title  "Average cqi MuMimo band 2, lteAvg"
attr unit  cqi
scalar CAIN.eNodeB[0].nic.mac 	cqiDlMuMimo2:lteAvg 	5.2885422915417
attr source  cqiDlMuMimo2
attr title  "Average cqi MuMimo band 2, lteAvg"
attr unit  cqi
scalar CAIN.eNodeB[0].nic.mac 	cqiDlMuMimo2:lteAvg 	8.7728758169935
attr source  cqiDlMuMimo2
attr title  "Average cqi MuMimo band 2, lteAvg"
attr unit  cqi
scalar CAIN.eNodeB[0].nic.mac 	cqiDlMuMimo2:lteAvg 	2.4463107378524
attr source  cqiDlMuMimo2
attr title  "Average cqi MuMimo band 2, lteAvg"
attr unit  cqi
scalar CAIN.eNodeB[0].nic.mac 	cqiDlMuMimo1:lteAvg 	11.735452909418
attr source  cqiDlMuMimo1
attr title  "Average cqi MuMimo band 1, lteAvg"
attr unit  cqi
scalar CAIN.eNodeB[0].nic.mac 	cqiDlMuMimo1:lteAvg 	9.8104379124175
attr source  cqiDlMuMimo1
attr title  "Average cqi MuMimo band 1, lteAvg"
attr unit  cqi
scalar CAIN.eNodeB[0].nic.mac 	cqiDlMuMimo1:lteAvg 	6.1187762447511
attr source  cqiDlMuMimo1
attr title  "Average cqi MuMimo band 1, lteAvg"
attr unit  cqi
scalar CAIN.eNodeB[0].nic.mac 	cqiDlMuMimo1:lteAvg 	2.130773845231
attr source  cqiDlMuMimo1
attr title  "Average cqi MuMimo band 1, lteAvg"
attr unit  cqi
scalar CAIN.eNodeB[0].nic.mac 	cqiDlMuMimo1:lteAvg 	1.998800239952
attr source  cqiDlMuMimo1
attr title  "Average cqi MuMimo band 1, lteAvg"
attr unit  cqi
scalar CAIN.eNodeB[0].nic.mac 	cqiDlMuMimo1:lteAvg 	2.028
attr source  cqiDlMuMimo1
attr title  "Average cqi MuMimo band 1, lteAvg"
attr unit  cqi
scalar CAIN.eNodeB[0].nic.mac 	cqiDlMuMimo1:lteAvg 	2.004199160168
attr source  cqiDlMuMimo1
attr title  "Average cqi MuMimo band 1, lteAvg"
attr unit  cqi
scalar CAIN.eNodeB[0].nic.mac 	cqiDlMuMimo1:lteAvg 	2
attr source  cqiDlMuMimo1
attr title  "Average cqi MuMimo band 1, lteAvg"
attr unit  cqi
scalar CAIN.eNodeB[0].nic.mac 	cqiDlMuMimo1:lteAvg 	5.0101979604079
attr source  cqiDlMuMimo1
attr title  "Average cqi MuMimo band 1, lteAvg"
attr unit  cqi
scalar CAIN.eNodeB[0].nic.mac 	cqiDlMuMimo1:lteAvg 	2.8055555555556
attr source  cqiDlMuMimo1
attr title  "Average cqi MuMimo band 1, lteAvg"
attr unit  cqi
scalar CAIN.eNodeB[0].nic.mac 	cqiDlMuMimo1:lteAvg 	2.0137972405519
attr source  cqiDlMuMimo1
attr title  "Average cqi MuMimo band 1, lteAvg"
attr unit  cqi
scalar CAIN.eNodeB[0].nic.mac 	cqiDlMuMimo0:lteAvg 	2.2921415716857
attr source  cqiDlMuMimo0
attr title  "Average cqi MuMimo band 0, lteAvg"
attr unit  cqi
scalar CAIN.eNodeB[0].nic.mac 	cqiDlMuMimo0:lteAvg 	2.4907018596281
attr source  cqiDlMuMimo0
attr title  "Average cqi MuMimo band 0, lteAvg"
attr unit  cqi
scalar CAIN.eNodeB[0].nic.mac 	cqiDlMuMimo0:lteAvg 	2.0509898020396
attr source  cqiDlMuMimo0
attr title  "Average cqi MuMimo band 0, lteAvg"
attr unit  cqi
scalar CAIN.eNodeB[0].nic.mac 	cqiDlMuMimo0:lteAvg 	7.3407318536293
attr source  cqiDlMuMimo0
attr title  "Average cqi MuMimo band 0, lteAvg"
attr unit  cqi
scalar CAIN.eNodeB[0].nic.mac 	cqiDlMuMimo0:lteAvg 	2
attr source  cqiDlMuMimo0
attr title  "Average cqi MuMimo band 0, lteAvg"
attr unit  cqi
scalar CAIN.eNodeB[0].nic.mac 	cqiDlMuMimo0:lteAvg 	2.452
attr source  cqiDlMuMimo0
attr title  "Average cqi MuMimo band 0, lteAvg"
attr unit  cqi
scalar CAIN.eNodeB[0].nic.mac 	cqiDlMuMimo0:lteAvg 	2.00299940012
attr source  cqiDlMuMimo0
attr title  "Average cqi MuMimo band 0, lteAvg"
attr unit  cqi
scalar CAIN.eNodeB[0].nic.mac 	cqiDlMuMimo0:lteAvg 	2
attr source  cqiDlMuMimo0
attr title  "Average cqi MuMimo band 0, lteAvg"
attr unit  cqi
scalar CAIN.eNodeB[0].nic.mac 	cqiDlMuMimo0:lteAvg 	2.6616676664667
attr source  cqiDlMuMimo0
attr title  "Average cqi MuMimo band 0, lteAvg"
attr unit  cqi
scalar CAIN.eNodeB[0].nic.mac 	cqiDlMuMimo0:lteAvg 	10.563725490196
attr source  cqiDlMuMimo0
attr title  "Average cqi MuMimo band 0, lteAvg"
attr unit  cqi
scalar CAIN.eNodeB[0].nic.mac 	cqiDlMuMimo0:lteAvg 	2.0323935212957
attr source  cqiDlMuMimo0
attr title  "Average cqi MuMimo band 0, lteAvg"
attr unit  cqi
scalar CAIN.eNodeB[0].nic.mac 	cqiDlTxDiv4:lteAvg 	14.96100779844
attr source  cqiDlTxDiv4
attr title  "Average cqi TxDiv band 4, lteAvg"
attr unit  cqi
scalar CAIN.eNodeB[0].nic.mac 	cqiDlTxDiv4:lteAvg 	10.260347930414
attr source  cqiDlTxDiv4
attr title  "Average cqi TxDiv band 4, lteAvg"
attr unit  cqi
scalar CAIN.eNodeB[0].nic.mac 	cqiDlTxDiv4:lteAvg 	13.487702459508
attr source  cqiDlTxDiv4
attr title  "Average cqi TxDiv band 4, lteAvg"
attr unit  cqi
scalar CAIN.eNodeB[0].nic.mac 	cqiDlTxDiv4:lteAvg 	12.959808038392
attr source  cqiDlTxDiv4
attr title  "Average cqi TxDiv band 4, lteAvg"
attr unit  cqi
scalar CAIN.eNodeB[0].nic.mac 	cqiDlTxDiv4:lteAvg 	8.7810437912418
attr source  cqiDlTxDiv4
attr title  "Average cqi TxDiv band 4, lteAvg"
attr unit  cqi
scalar CAIN.eNodeB[0].nic.mac 	cqiDlTxDiv4:lteAvg 	4.988
attr source  cqiDlTxDiv4
attr title  "Average cqi TxDiv band 4, lteAvg"
attr unit  cqi
scalar CAIN.eNodeB[0].nic.mac 	cqiDlTxDiv4:lteAvg 	7.9358128374325
attr source  cqiDlTxDiv4
attr title  "Average cqi TxDiv band 4, lteAvg"
attr unit  cqi
scalar CAIN.eNodeB[0].nic.mac 	cqiDlTxDiv4:lteAvg 	9
attr source  cqiDlTxDiv4
attr title  "Average cqi TxDiv band 4, lteAvg"
attr unit  cqi
scalar CAIN.eNodeB[0].nic.mac 	cqiDlTxDiv4:lteAvg 	4.8110377924415
attr source  cqiDlTxDiv4
attr title  "Average cqi TxDiv band 4, lteAvg"
attr unit  cqi
scalar CAIN.eNodeB[0].nic.mac 	cqiDlTxDiv4:lteAvg 	14.925653594771
attr source  cqiDlTxDiv4
attr title  "Average cqi TxDiv band 4, lteAvg"
attr unit  cqi
scalar CAIN.eNodeB[0].nic.mac 	cqiDlTxDiv4:lteAvg 	8.2687462507498
attr source  cqiDlTxDiv4
attr title  "Average cqi TxDiv band 4, lteAvg"
attr unit  cqi
scalar CAIN.eNodeB[0].nic.mac 	cqiDlTxDiv3:lteAvg 	9.2783443311338
attr source  cqiDlTxDiv3
attr title  "Average cqi TxDiv band 3, lteAvg"
attr unit  cqi
scalar CAIN.eNodeB[0].nic.mac 	cqiDlTxDiv3:lteAvg 	14.908818236353
attr source  cqiDlTxDiv3
attr title  "Average cqi TxDiv band 3, lteAvg"
attr unit  cqi
scalar CAIN.eNodeB[0].nic.mac 	cqiDlTxDiv3:lteAvg 	14.859628074385
attr source  cqiDlTxDiv3
attr title  "Average cqi TxDiv band 3, lteAvg"
attr unit  cqi
scalar CAIN.eNodeB[0].nic.mac 	cqiDlTxDiv3:lteAvg 	13.448710257948
attr source  cqiDlTxDiv3
attr title  "Average cqi TxDiv band 3, lteAvg"
attr unit  cqi
scalar CAIN.eNodeB[0].nic.mac 	cqiDlTxDiv3:lteAvg 	8.2579484103179
attr source  cqiDlTxDiv3
attr title  "Average cqi TxDiv band 3, lteAvg"
attr unit  cqi
scalar CAIN.eNodeB[0].nic.mac 	cqiDlTxDiv3:lteAvg 	5.468
attr source  cqiDlTxDiv3
attr title  "Average cqi TxDiv band 3, lteAvg"
attr unit  cqi
scalar CAIN.eNodeB[0].nic.mac 	cqiDlTxDiv3:lteAvg 	9.3113377324535
attr source  cqiDlTxDiv3
attr title  "Average cqi TxDiv band 3, lteAvg"
attr unit  cqi
scalar CAIN.eNodeB[0].nic.mac 	cqiDlTxDiv3:lteAvg 	6
attr source  cqiDlTxDiv3
attr title  "Average cqi TxDiv band 3, lteAvg"
attr unit  cqi
scalar CAIN.eNodeB[0].nic.mac 	cqiDlTxDiv3:lteAvg 	10.745050989802
attr source  cqiDlTxDiv3
attr title  "Average cqi TxDiv band 3, lteAvg"
attr unit  cqi
scalar CAIN.eNodeB[0].nic.mac 	cqiDlTxDiv3:lteAvg 	14.887254901961
attr source  cqiDlTxDiv3
attr title  "Average cqi TxDiv band 3, lteAvg"
attr unit  cqi
scalar CAIN.eNodeB[0].nic.mac 	cqiDlTxDiv3:lteAvg 	9.1943611277744
attr source  cqiDlTxDiv3
attr title  "Average cqi TxDiv band 3, lteAvg"
attr unit  cqi
scalar CAIN.eNodeB[0].nic.mac 	cqiDlTxDiv2:lteAvg 	13.115776844631
attr source  cqiDlTxDiv2
attr title  "Average cqi TxDiv band 2, lteAvg"
attr unit  cqi
scalar CAIN.eNodeB[0].nic.mac 	cqiDlTxDiv2:lteAvg 	14.776844631074
attr source  cqiDlTxDiv2
attr title  "Average cqi TxDiv band 2, lteAvg"
attr unit  cqi
scalar CAIN.eNodeB[0].nic.mac 	cqiDlTxDiv2:lteAvg 	5.0737852429514
attr source  cqiDlTxDiv2
attr title  "Average cqi TxDiv band 2, lteAvg"
attr unit  cqi
scalar CAIN.eNodeB[0].nic.mac 	cqiDlTxDiv2:lteAvg 	9.6880623875225
attr source  cqiDlTxDiv2
attr title  "Average cqi TxDiv band 2, lteAvg"
attr unit  cqi
scalar CAIN.eNodeB[0].nic.mac 	cqiDlTxDiv2:lteAvg 	2.1541691661668
attr source  cqiDlTxDiv2
attr title  "Average cqi TxDiv band 2, lteAvg"
attr unit  cqi
scalar CAIN.eNodeB[0].nic.mac 	cqiDlTxDiv2:lteAvg 	9.228
attr source  cqiDlTxDiv2
attr title  "Average cqi TxDiv band 2, lteAvg"
attr unit  cqi
scalar CAIN.eNodeB[0].nic.mac 	cqiDlTxDiv2:lteAvg 	7.8338332333533
attr source  cqiDlTxDiv2
attr title  "Average cqi TxDiv band 2, lteAvg"
attr unit  cqi
scalar CAIN.eNodeB[0].nic.mac 	cqiDlTxDiv2:lteAvg 	3
attr source  cqiDlTxDiv2
attr title  "Average cqi TxDiv band 2, lteAvg"
attr unit  cqi
scalar CAIN.eNodeB[0].nic.mac 	cqiDlTxDiv2:lteAvg 	13.629874025195
attr source  cqiDlTxDiv2
attr title  "Average cqi TxDiv band 2, lteAvg"
attr unit  cqi
scalar CAIN.eNodeB[0].nic.mac 	cqiDlTxDiv2:lteAvg 	14.904411764706
attr source  cqiDlTxDiv2
attr title  "Average cqi TxDiv band 2, lteAvg"
attr unit  cqi
scalar CAIN.eNodeB[0].nic.mac 	cqiDlTxDiv2:lteAvg 	8.245350929814
attr source  cqiDlTxDiv2
attr title  "Average cqi TxDiv band 2, lteAvg"
attr unit  cqi
scalar CAIN.eNodeB[0].nic.mac 	cqiDlTxDiv1:lteAvg 	14.96400719856
attr source  cqiDlTxDiv1
attr title  "Average cqi TxDiv band 1, lteAvg"
attr unit  cqi
scalar CAIN.eNodeB[0].nic.mac 	cqiDlTxDiv1:lteAvg 	14.876424715057
attr source  cqiDlTxDiv1
attr title  "Average cqi TxDiv band 1, lteAvg"
attr unit  cqi
scalar CAIN.eNodeB[0].nic.mac 	cqiDlTxDiv1:lteAvg 	14.842231553689
attr source  cqiDlTxDiv1
attr title  "Average cqi TxDiv band 1, lteAvg"
attr unit  cqi
scalar CAIN.eNodeB[0].nic.mac 	cqiDlTxDiv1:lteAvg 	2.620275944811
attr source  cqiDlTxDiv1
attr title  "Average cqi TxDiv band 1, lteAvg"
attr unit  cqi
scalar CAIN.eNodeB[0].nic.mac 	cqiDlTxDiv1:lteAvg 	3.1337732453509
attr source  cqiDlTxDiv1
attr title  "Average cqi TxDiv band 1, lteAvg"
attr unit  cqi
scalar CAIN.eNodeB[0].nic.mac 	cqiDlTxDiv1:lteAvg 	2.708
attr source  cqiDlTxDiv1
attr title  "Average cqi TxDiv band 1, lteAvg"
attr unit  cqi
scalar CAIN.eNodeB[0].nic.mac 	cqiDlTxDiv1:lteAvg 	7.9514097180564
attr source  cqiDlTxDiv1
attr title  "Average cqi TxDiv band 1, lteAvg"
attr unit  cqi
scalar CAIN.eNodeB[0].nic.mac 	cqiDlTxDiv1:lteAvg 	2
attr source  cqiDlTxDiv1
attr title  "Average cqi TxDiv band 1, lteAvg"
attr unit  cqi
scalar CAIN.eNodeB[0].nic.mac 	cqiDlTxDiv1:lteAvg 	13.04199160168
attr source  cqiDlTxDiv1
attr title  "Average cqi TxDiv band 1, lteAvg"
attr unit  cqi
scalar CAIN.eNodeB[0].nic.mac 	cqiDlTxDiv1:lteAvg 	13.044934640523
attr source  cqiDlTxDiv1
attr title  "Average cqi TxDiv band 1, lteAvg"
attr unit  cqi
scalar CAIN.eNodeB[0].nic.mac 	cqiDlTxDiv1:lteAvg 	5.9034193161368
attr source  cqiDlTxDiv1
attr title  "Average cqi TxDiv band 1, lteAvg"
attr unit  cqi
scalar CAIN.eNodeB[0].nic.mac 	cqiDlTxDiv0:lteAvg 	9.7930413917217
attr source  cqiDlTxDiv0
attr title  "Average cqi TxDiv band 0, lteAvg"
attr unit  cqi
scalar CAIN.eNodeB[0].nic.mac 	cqiDlTxDiv0:lteAvg 	12.567486502699
attr source  cqiDlTxDiv0
attr title  "Average cqi TxDiv band 0, lteAvg"
attr unit  cqi
scalar CAIN.eNodeB[0].nic.mac 	cqiDlTxDiv0:lteAvg 	8.1379724055189
attr source  cqiDlTxDiv0
attr title  "Average cqi TxDiv band 0, lteAvg"
attr unit  cqi
scalar CAIN.eNodeB[0].nic.mac 	cqiDlTxDiv0:lteAvg 	14.882423515297
attr source  cqiDlTxDiv0
attr title  "Average cqi TxDiv band 0, lteAvg"
attr unit  cqi
scalar CAIN.eNodeB[0].nic.mac 	cqiDlTxDiv0:lteAvg 	8.1889622075585
attr source  cqiDlTxDiv0
attr title  "Average cqi TxDiv band 0, lteAvg"
attr unit  cqi
scalar CAIN.eNodeB[0].nic.mac 	cqiDlTxDiv0:lteAvg 	7.452
attr source  cqiDlTxDiv0
attr title  "Average cqi TxDiv band 0, lteAvg"
attr unit  cqi
scalar CAIN.eNodeB[0].nic.mac 	cqiDlTxDiv0:lteAvg 	8.000599880024
attr source  cqiDlTxDiv0
attr title  "Average cqi TxDiv band 0, lteAvg"
attr unit  cqi
scalar CAIN.eNodeB[0].nic.mac 	cqiDlTxDiv0:lteAvg 	8
attr source  cqiDlTxDiv0
attr title  "Average cqi TxDiv band 0, lteAvg"
attr unit  cqi
scalar CAIN.eNodeB[0].nic.mac 	cqiDlTxDiv0:lteAvg 	9.7636472705459
attr source  cqiDlTxDiv0
attr title  "Average cqi TxDiv band 0, lteAvg"
attr unit  cqi
scalar CAIN.eNodeB[0].nic.mac 	cqiDlTxDiv0:lteAvg 	14.908496732026
attr source  cqiDlTxDiv0
attr title  "Average cqi TxDiv band 0, lteAvg"
attr unit  cqi
scalar CAIN.eNodeB[0].nic.mac 	cqiDlTxDiv0:lteAvg 	5.751649670066
attr source  cqiDlTxDiv0
attr title  "Average cqi TxDiv band 0, lteAvg"
attr unit  cqi
scalar CAIN.eNodeB[0].nic.mac 	cqiDlSpmux4:lteAvg 	6.0113977204559
attr source  cqiDlSpmux4
attr title  "Average cqi Spmux band 4, lteAvg"
attr unit  cqi
scalar CAIN.eNodeB[0].nic.mac 	cqiDlSpmux4:lteAvg 	2.4649070185963
attr source  cqiDlSpmux4
attr title  "Average cqi Spmux band 4, lteAvg"
attr unit  cqi
scalar CAIN.eNodeB[0].nic.mac 	cqiDlSpmux4:lteAvg 	4.379124175165
attr source  cqiDlSpmux4
attr title  "Average cqi Spmux band 4, lteAvg"
attr unit  cqi
scalar CAIN.eNodeB[0].nic.mac 	cqiDlSpmux4:lteAvg 	4.0209958008398
attr source  cqiDlSpmux4
attr title  "Average cqi Spmux band 4, lteAvg"
attr unit  cqi
scalar CAIN.eNodeB[0].nic.mac 	cqiDlSpmux4:lteAvg 	2.00299940012
attr source  cqiDlSpmux4
attr title  "Average cqi Spmux band 4, lteAvg"
attr unit  cqi
scalar CAIN.eNodeB[0].nic.mac 	cqiDlSpmux4:lteAvg 	2.024
attr source  cqiDlSpmux4
attr title  "Average cqi Spmux band 4, lteAvg"
attr unit  cqi
scalar CAIN.eNodeB[0].nic.mac 	cqiDlSpmux4:lteAvg 	2.0101979604079
attr source  cqiDlSpmux4
attr title  "Average cqi Spmux band 4, lteAvg"
attr unit  cqi
scalar CAIN.eNodeB[0].nic.mac 	cqiDlSpmux4:lteAvg 	2
attr source  cqiDlSpmux4
attr title  "Average cqi Spmux band 4, lteAvg"
attr unit  cqi
scalar CAIN.eNodeB[0].nic.mac 	cqiDlSpmux4:lteAvg 	2.0857828434313
attr source  cqiDlSpmux4
attr title  "Average cqi Spmux band 4, lteAvg"
attr unit  cqi
scalar CAIN.eNodeB[0].nic.mac 	cqiDlSpmux4:lteAvg 	5.9665032679739
attr source  cqiDlSpmux4
attr title  "Average cqi Spmux band 4, lteAvg"
attr unit  cqi
scalar CAIN.eNodeB[0].nic.mac 	cqiDlSpmux4:lteAvg 	2.6664667066587
attr source  cqiDlSpmux4
attr title  "Average cqi Spmux band 4, lteAvg"
attr unit  cqi
scalar CAIN.eNodeB[0].nic.mac 	cqiDlSpmux3:lteAvg 	2.2381523695261
attr source  cqiDlSpmux3
attr title  "Average cqi Spmux band 3, lteAvg"
attr unit  cqi
scalar CAIN.eNodeB[0].nic.mac 	cqiDlSpmux3:lteAvg 	6.8272345530894
attr source  cqiDlSpmux3
attr title  "Average cqi Spmux band 3, lteAvg"
attr unit  cqi
scalar CAIN.eNodeB[0].nic.mac 	cqiDlSpmux3:lteAvg 	5.1883623275345
attr source  cqiDlSpmux3
attr title  "Average cqi Spmux band 3, lteAvg"
attr unit  cqi
scalar CAIN.eNodeB[0].nic.mac 	cqiDlSpmux3:lteAvg 	4.5140971805639
attr source  cqiDlSpmux3
attr title  "Average cqi Spmux band 3, lteAvg"
attr unit  cqi
scalar CAIN.eNodeB[0].nic.mac 	cqiDlSpmux3:lteAvg 	2.001199760048
attr source  cqiDlSpmux3
attr title  "Average cqi Spmux band 3, lteAvg"
attr unit  cqi
scalar CAIN.eNodeB[0].nic.mac 	cqiDlSpmux3:lteAvg 	2.036
attr source  cqiDlSpmux3
attr title  "Average cqi Spmux band 3, lteAvg"
attr unit  cqi
scalar CAIN.eNodeB[0].nic.mac 	cqiDlSpmux3:lteAvg 	2.0251949610078
attr source  cqiDlSpmux3
attr title  "Average cqi Spmux band 3, lteAvg"
attr unit  cqi
scalar CAIN.eNodeB[0].nic.mac 	cqiDlSpmux3:lteAvg 	2
attr source  cqiDlSpmux3
attr title  "Average cqi Spmux band 3, lteAvg"
attr unit  cqi
scalar CAIN.eNodeB[0].nic.mac 	cqiDlSpmux3:lteAvg 	3.2591481703659
attr source  cqiDlSpmux3
attr title  "Average cqi Spmux band 3, lteAvg"
attr unit  cqi
scalar CAIN.eNodeB[0].nic.mac 	cqiDlSpmux3:lteAvg 	7.6307189542484
attr source  cqiDlSpmux3
attr title  "Average cqi Spmux band 3, lteAvg"
attr unit  cqi
scalar CAIN.eNodeB[0].nic.mac 	cqiDlSpmux3:lteAvg 	2.6706658668266
attr source  cqiDlSpmux3
attr title  "Average cqi Spmux band 3, lteAvg"
attr unit  cqi
scalar CAIN.eNodeB[0].nic.mac 	cqiDlSpmux2:lteAvg 	4.1739652069586
attr source  cqiDlSpmux2
attr title  "Average cqi Spmux band 2, lteAvg"
attr unit  cqi
scalar CAIN.eNodeB[0].nic.mac 	cqiDlSpmux2:lteAvg 	5.7576484703059
attr source  cqiDlSpmux2
attr title  "Average cqi Spmux band 2, lteAvg"
attr unit  cqi
scalar CAIN.eNodeB[0].nic.mac 	cqiDlSpmux2:lteAvg 	2.0743851229754
attr source  cqiDlSpmux2
attr title  "Average cqi Spmux band 2, lteAvg"
attr unit  cqi
scalar CAIN.eNodeB[0].nic.mac 	cqiDlSpmux2:lteAvg 	2.1331733653269
attr source  cqiDlSpmux2
attr title  "Average cqi Spmux band 2, lteAvg"
attr unit  cqi
scalar CAIN.eNodeB[0].nic.mac 	cqiDlSpmux2:lteAvg 	2.00599880024
attr source  cqiDlSpmux2
attr title  "Average cqi Spmux band 2, lteAvg"
attr unit  cqi
scalar CAIN.eNodeB[0].nic.mac 	cqiDlSpmux2:lteAvg 	3.36
attr source  cqiDlSpmux2
attr title  "Average cqi Spmux band 2, lteAvg"
attr unit  cqi
scalar CAIN.eNodeB[0].nic.mac 	cqiDlSpmux2:lteAvg 	2.0143971205759
attr source  cqiDlSpmux2
attr title  "Average cqi Spmux band 2, lteAvg"
attr unit  cqi
scalar CAIN.eNodeB[0].nic.mac 	cqiDlSpmux2:lteAvg 	2
attr source  cqiDlSpmux2
attr title  "Average cqi Spmux band 2, lteAvg"
attr unit  cqi
scalar CAIN.eNodeB[0].nic.mac 	cqiDlSpmux2:lteAvg 	5.2915416916617
attr source  cqiDlSpmux2
attr title  "Average cqi Spmux band 2, lteAvg"
attr unit  cqi
scalar CAIN.eNodeB[0].nic.mac 	cqiDlSpmux2:lteAvg 	6.8929738562092
attr source  cqiDlSpmux2
attr title  "Average cqi Spmux band 2, lteAvg"
attr unit  cqi
scalar CAIN.eNodeB[0].nic.mac 	cqiDlSpmux2:lteAvg 	2.6670665866827
attr source  cqiDlSpmux2
attr title  "Average cqi Spmux band 2, lteAvg"
attr unit  cqi
scalar CAIN.eNodeB[0].nic.mac 	cqiDlSpmux1:lteAvg 	7.8980203959208
attr source  cqiDlSpmux1
attr title  "Average cqi Spmux band 1, lteAvg"
attr unit  cqi
scalar CAIN.eNodeB[0].nic.mac 	cqiDlSpmux1:lteAvg 	7.1637672465507
attr source  cqiDlSpmux1
attr title  "Average cqi Spmux band 1, lteAvg"
attr unit  cqi
scalar CAIN.eNodeB[0].nic.mac 	cqiDlSpmux1:lteAvg 	5.754649070186
attr source  cqiDlSpmux1
attr title  "Average cqi Spmux band 1, lteAvg"
attr unit  cqi
scalar CAIN.eNodeB[0].nic.mac 	cqiDlSpmux1:lteAvg 	2.1403719256149
attr source  cqiDlSpmux1
attr title  "Average cqi Spmux band 1, lteAvg"
attr unit  cqi
scalar CAIN.eNodeB[0].nic.mac 	cqiDlSpmux1:lteAvg 	2.002399520096
attr source  cqiDlSpmux1
attr title  "Average cqi Spmux band 1, lteAvg"
attr unit  cqi
scalar CAIN.eNodeB[0].nic.mac 	cqiDlSpmux1:lteAvg 	2.044
attr source  cqiDlSpmux1
attr title  "Average cqi Spmux band 1, lteAvg"
attr unit  cqi
scalar CAIN.eNodeB[0].nic.mac 	cqiDlSpmux1:lteAvg 	2.0143971205759
attr source  cqiDlSpmux1
attr title  "Average cqi Spmux band 1, lteAvg"
attr unit  cqi
scalar CAIN.eNodeB[0].nic.mac 	cqiDlSpmux1:lteAvg 	2
attr source  cqiDlSpmux1
attr title  "Average cqi Spmux band 1, lteAvg"
attr unit  cqi
scalar CAIN.eNodeB[0].nic.mac 	cqiDlSpmux1:lteAvg 	4.7240551889622
attr source  cqiDlSpmux1
attr title  "Average cqi Spmux band 1, lteAvg"
attr unit  cqi
scalar CAIN.eNodeB[0].nic.mac 	cqiDlSpmux1:lteAvg 	4.0972222222222
attr source  cqiDlSpmux1
attr title  "Average cqi Spmux band 1, lteAvg"
attr unit  cqi
scalar CAIN.eNodeB[0].nic.mac 	cqiDlSpmux1:lteAvg 	2.0269946010798
attr source  cqiDlSpmux1
attr title  "Average cqi Spmux band 1, lteAvg"
attr unit  cqi
scalar CAIN.eNodeB[0].nic.mac 	cqiDlSpmux0:lteAvg 	2.2285542891422
attr source  cqiDlSpmux0
attr title  "Average cqi Spmux band 0, lteAvg"
attr unit  cqi
scalar CAIN.eNodeB[0].nic.mac 	cqiDlSpmux0:lteAvg 	3.874625074985
attr source  cqiDlSpmux0
attr title  "Average cqi Spmux band 0, lteAvg"
attr unit  cqi
scalar CAIN.eNodeB[0].nic.mac 	cqiDlSpmux0:lteAvg 	2.0659868026395
attr source  cqiDlSpmux0
attr title  "Average cqi Spmux band 0, lteAvg"
attr unit  cqi
scalar CAIN.eNodeB[0].nic.mac 	cqiDlSpmux0:lteAvg 	6.4169166166767
attr source  cqiDlSpmux0
attr title  "Average cqi Spmux band 0, lteAvg"
attr unit  cqi
scalar CAIN.eNodeB[0].nic.mac 	cqiDlSpmux0:lteAvg 	2.001199760048
attr source  cqiDlSpmux0
attr title  "Average cqi Spmux band 0, lteAvg"
attr unit  cqi
scalar CAIN.eNodeB[0].nic.mac 	cqiDlSpmux0:lteAvg 	2.904
attr source  cqiDlSpmux0
attr title  "Average cqi Spmux band 0, lteAvg"
attr unit  cqi
scalar CAIN.eNodeB[0].nic.mac 	cqiDlSpmux0:lteAvg 	2.0143971205759
attr source  cqiDlSpmux0
attr title  "Average cqi Spmux band 0, lteAvg"
attr unit  cqi
scalar CAIN.eNodeB[0].nic.mac 	cqiDlSpmux0:lteAvg 	2
attr source  cqiDlSpmux0
attr title  "Average cqi Spmux band 0, lteAvg"
attr unit  cqi
scalar CAIN.eNodeB[0].nic.mac 	cqiDlSpmux0:lteAvg 	2.9628074385123
attr source  cqiDlSpmux0
attr title  "Average cqi Spmux band 0, lteAvg"
attr unit  cqi
scalar CAIN.eNodeB[0].nic.mac 	cqiDlSpmux0:lteAvg 	7.6519607843137
attr source  cqiDlSpmux0
attr title  "Average cqi Spmux band 0, lteAvg"
attr unit  cqi
scalar CAIN.eNodeB[0].nic.mac 	cqiDlSpmux0:lteAvg 	2.0467906418716
attr source  cqiDlSpmux0
attr title  "Average cqi Spmux band 0, lteAvg"
attr unit  cqi
scalar CAIN.eNodeB[0].nic.mac 	cqiDlSiso4:lteAvg 	7.0137972405519
attr source  cqiDlSiso4
attr title  "Average cqi siso band 4, lteAvg"
attr unit  cqi
scalar CAIN.eNodeB[0].nic.mac 	cqiDlSiso4:lteAvg 	2.2171565686863
attr source  cqiDlSiso4
attr title  "Average cqi siso band 4, lteAvg"
attr unit  cqi
scalar CAIN.eNodeB[0].nic.mac 	cqiDlSiso4:lteAvg 	3.2627474505099
attr source  cqiDlSiso4
attr title  "Average cqi siso band 4, lteAvg"
attr unit  cqi
scalar CAIN.eNodeB[0].nic.mac 	cqiDlSiso4:lteAvg 	2.623275344931
attr source  cqiDlSiso4
attr title  "Average cqi siso band 4, lteAvg"
attr unit  cqi
scalar CAIN.eNodeB[0].nic.mac 	cqiDlSiso4:lteAvg 	2
attr source  cqiDlSiso4
attr title  "Average cqi siso band 4, lteAvg"
attr unit  cqi
scalar CAIN.eNodeB[0].nic.mac 	cqiDlSiso4:lteAvg 	2.012
attr source  cqiDlSiso4
attr title  "Average cqi siso band 4, lteAvg"
attr unit  cqi
scalar CAIN.eNodeB[0].nic.mac 	cqiDlSiso4:lteAvg 	2.001799640072
attr source  cqiDlSiso4
attr title  "Average cqi siso band 4, lteAvg"
attr unit  cqi
scalar CAIN.eNodeB[0].nic.mac 	cqiDlSiso4:lteAvg 	2
attr source  cqiDlSiso4
attr title  "Average cqi siso band 4, lteAvg"
attr unit  cqi
scalar CAIN.eNodeB[0].nic.mac 	cqiDlSiso4:lteAvg 	2.0779844031194
attr source  cqiDlSiso4
attr title  "Average cqi siso band 4, lteAvg"
attr unit  cqi
scalar CAIN.eNodeB[0].nic.mac 	cqiDlSiso4:lteAvg 	6.5563725490196
attr source  cqiDlSiso4
attr title  "Average cqi siso band 4, lteAvg"
attr unit  cqi
scalar CAIN.eNodeB[0].nic.mac 	cqiDlSiso4:lteAvg 	2.4421115776845
attr source  cqiDlSiso4
attr title  "Average cqi siso band 4, lteAvg"
attr unit  cqi
scalar CAIN.eNodeB[0].nic.mac 	cqiDlSiso3:lteAvg 	2.3071385722855
attr source  cqiDlSiso3
attr title  "Average cqi siso band 3, lteAvg"
attr unit  cqi
scalar CAIN.eNodeB[0].nic.mac 	cqiDlSiso3:lteAvg 	8.9280143971206
attr source  cqiDlSiso3
attr title  "Average cqi siso band 3, lteAvg"
attr unit  cqi
scalar CAIN.eNodeB[0].nic.mac 	cqiDlSiso3:lteAvg 	4.8836232753449
attr source  cqiDlSiso3
attr title  "Average cqi siso band 3, lteAvg"
attr unit  cqi
scalar CAIN.eNodeB[0].nic.mac 	cqiDlSiso3:lteAvg 	3.5614877024595
attr source  cqiDlSiso3
attr title  "Average cqi siso band 3, lteAvg"
attr unit  cqi
scalar CAIN.eNodeB[0].nic.mac 	cqiDlSiso3:lteAvg 	2
attr source  cqiDlSiso3
attr title  "Average cqi siso band 3, lteAvg"
attr unit  cqi
scalar CAIN.eNodeB[0].nic.mac 	cqiDlSiso3:lteAvg 	2.016
attr source  cqiDlSiso3
attr title  "Average cqi siso band 3, lteAvg"
attr unit  cqi
scalar CAIN.eNodeB[0].nic.mac 	cqiDlSiso3:lteAvg 	2.004799040192
attr source  cqiDlSiso3
attr title  "Average cqi siso band 3, lteAvg"
attr unit  cqi
scalar CAIN.eNodeB[0].nic.mac 	cqiDlSiso3:lteAvg 	2
attr source  cqiDlSiso3
attr title  "Average cqi siso band 3, lteAvg"
attr unit  cqi
scalar CAIN.eNodeB[0].nic.mac 	cqiDlSiso3:lteAvg 	2.9544091181764
attr source  cqiDlSiso3
attr title  "Average cqi siso band 3, lteAvg"
attr unit  cqi
scalar CAIN.eNodeB[0].nic.mac 	cqiDlSiso3:lteAvg 	10.637254901961
attr source  cqiDlSiso3
attr title  "Average cqi siso band 3, lteAvg"
attr unit  cqi
scalar CAIN.eNodeB[0].nic.mac 	cqiDlSiso3:lteAvg 	2.4589082183563
attr source  cqiDlSiso3
attr title  "Average cqi siso band 3, lteAvg"
attr unit  cqi
scalar CAIN.eNodeB[0].nic.mac 	cqiDlSiso2:lteAvg 	3.2999400119976
attr source  cqiDlSiso2
attr title  "Average cqi siso band 2, lteAvg"
attr unit  cqi
scalar CAIN.eNodeB[0].nic.mac 	cqiDlSiso2:lteAvg 	6.2405518896221
attr source  cqiDlSiso2
attr title  "Average cqi siso band 2, lteAvg"
attr unit  cqi
scalar CAIN.eNodeB[0].nic.mac 	cqiDlSiso2:lteAvg 	2.0635872825435
attr source  cqiDlSiso2
attr title  "Average cqi siso band 2, lteAvg"
attr unit  cqi
scalar CAIN.eNodeB[0].nic.mac 	cqiDlSiso2:lteAvg 	2.119976004799
attr source  cqiDlSiso2
attr title  "Average cqi siso band 2, lteAvg"
attr unit  cqi
scalar CAIN.eNodeB[0].nic.mac 	cqiDlSiso2:lteAvg 	2.001199760048
attr source  cqiDlSiso2
attr title  "Average cqi siso band 2, lteAvg"
attr unit  cqi
scalar CAIN.eNodeB[0].nic.mac 	cqiDlSiso2:lteAvg 	2.9
attr source  cqiDlSiso2
attr title  "Average cqi siso band 2, lteAvg"
attr unit  cqi
scalar CAIN.eNodeB[0].nic.mac 	cqiDlSiso2:lteAvg 	2.002399520096
attr source  cqiDlSiso2
attr title  "Average cqi siso band 2, lteAvg"
attr unit  cqi
scalar CAIN.eNodeB[0].nic.mac 	cqiDlSiso2:lteAvg 	2
attr source  cqiDlSiso2
attr title  "Average cqi siso band 2, lteAvg"
attr unit  cqi
scalar CAIN.eNodeB[0].nic.mac 	cqiDlSiso2:lteAvg 	5.2885422915417
attr source  cqiDlSiso2
attr title  "Average cqi siso band 2, lteAvg"
attr unit  cqi
scalar CAIN.eNodeB[0].nic.mac 	cqiDlSiso2:lteAvg 	8.7728758169935
attr source  cqiDlSiso2
attr title  "Average cqi siso band 2, lteAvg"
attr unit  cqi
scalar CAIN.eNodeB[0].nic.mac 	cqiDlSiso2:lteAvg 	2.4463107378524
attr source  cqiDlSiso2
attr title  "Average cqi siso band 2, lteAvg"
attr unit  cqi
scalar CAIN.eNodeB[0].nic.mac 	cqiDlSiso1:lteAvg 	11.735452909418
attr source  cqiDlSiso1
attr title  "Average cqi siso band 1, lteAvg"
attr unit  cqi
scalar CAIN.eNodeB[0].nic.mac 	cqiDlSiso1:lteAvg 	9.8104379124175
attr source  cqiDlSiso1
attr title  "Average cqi siso band 1, lteAvg"
attr unit  cqi
scalar CAIN.eNodeB[0].nic.mac 	cqiDlSiso1:lteAvg 	6.1187762447511
attr source  cqiDlSiso1
attr title  "Average cqi siso band 1, lteAvg"
attr unit  cqi
scalar CAIN.eNodeB[0].nic.mac 	cqiDlSiso1:lteAvg 	2.130773845231
attr source  cqiDlSiso1
attr title  "Average cqi siso band 1, lteAvg"
attr unit  cqi
scalar CAIN.eNodeB[0].nic.mac 	cqiDlSiso1:lteAvg 	1.998800239952
attr source  cqiDlSiso1
attr title  "Average cqi siso band 1, lteAvg"
attr unit  cqi
scalar CAIN.eNodeB[0].nic.mac 	cqiDlSiso1:lteAvg 	2.028
attr source  cqiDlSiso1
attr title  "Average cqi siso band 1, lteAvg"
attr unit  cqi
scalar CAIN.eNodeB[0].nic.mac 	cqiDlSiso1:lteAvg 	2.004199160168
attr source  cqiDlSiso1
attr title  "Average cqi siso band 1, lteAvg"
attr unit  cqi
scalar CAIN.eNodeB[0].nic.mac 	cqiDlSiso1:lteAvg 	2
attr source  cqiDlSiso1
attr title  "Average cqi siso band 1, lteAvg"
attr unit  cqi
scalar CAIN.eNodeB[0].nic.mac 	cqiDlSiso1:lteAvg 	5.0101979604079
attr source  cqiDlSiso1
attr title  "Average cqi siso band 1, lteAvg"
attr unit  cqi
scalar CAIN.eNodeB[0].nic.mac 	cqiDlSiso1:lteAvg 	2.8055555555556
attr source  cqiDlSiso1
attr title  "Average cqi siso band 1, lteAvg"
attr unit  cqi
scalar CAIN.eNodeB[0].nic.mac 	cqiDlSiso1:lteAvg 	2.0137972405519
attr source  cqiDlSiso1
attr title  "Average cqi siso band 1, lteAvg"
attr unit  cqi
scalar CAIN.eNodeB[0].nic.mac 	cqiDlSiso0:lteAvg 	2.2921415716857
attr source  cqiDlSiso0
attr title  "Average cqi siso band 0, lteAvg"
attr unit  cqi
scalar CAIN.eNodeB[0].nic.mac 	cqiDlSiso0:lteAvg 	2.4907018596281
attr source  cqiDlSiso0
attr title  "Average cqi siso band 0, lteAvg"
attr unit  cqi
scalar CAIN.eNodeB[0].nic.mac 	cqiDlSiso0:lteAvg 	2.0509898020396
attr source  cqiDlSiso0
attr title  "Average cqi siso band 0, lteAvg"
attr unit  cqi
scalar CAIN.eNodeB[0].nic.mac 	cqiDlSiso0:lteAvg 	7.3407318536293
attr source  cqiDlSiso0
attr title  "Average cqi siso band 0, lteAvg"
attr unit  cqi
scalar CAIN.eNodeB[0].nic.mac 	cqiDlSiso0:lteAvg 	2
attr source  cqiDlSiso0
attr title  "Average cqi siso band 0, lteAvg"
attr unit  cqi
scalar CAIN.eNodeB[0].nic.mac 	cqiDlSiso0:lteAvg 	2.452
attr source  cqiDlSiso0
attr title  "Average cqi siso band 0, lteAvg"
attr unit  cqi
scalar CAIN.eNodeB[0].nic.mac 	cqiDlSiso0:lteAvg 	2.00299940012
attr source  cqiDlSiso0
attr title  "Average cqi siso band 0, lteAvg"
attr unit  cqi
scalar CAIN.eNodeB[0].nic.mac 	cqiDlSiso0:lteAvg 	2
attr source  cqiDlSiso0
attr title  "Average cqi siso band 0, lteAvg"
attr unit  cqi
scalar CAIN.eNodeB[0].nic.mac 	cqiDlSiso0:lteAvg 	2.6616676664667
attr source  cqiDlSiso0
attr title  "Average cqi siso band 0, lteAvg"
attr unit  cqi
scalar CAIN.eNodeB[0].nic.mac 	cqiDlSiso0:lteAvg 	10.563725490196
attr source  cqiDlSiso0
attr title  "Average cqi siso band 0, lteAvg"
attr unit  cqi
scalar CAIN.eNodeB[0].nic.mac 	cqiDlSiso0:lteAvg 	2.0323935212957
attr source  cqiDlSiso0
attr title  "Average cqi siso band 0, lteAvg"
attr unit  cqi
scalar CAIN.eNodeB[0].nic.mac 	depletedPowerUl:lteAvg 	0
attr source  depletedPowerUl
attr title  "LTE ENodeB depleted power Ul, lteAvg"
attr unit  watts
scalar CAIN.eNodeB[0].nic.mac 	depletedPowerDl:lteAvg 	260
attr source  depletedPowerDl
attr title  "LTE ENodeB depleted power Dl, lteAvg"
attr unit  watts
scalar CAIN.eNodeB[0].nic.mac 	avgServedBlocksUl:lteAvg 	0
attr source  avgServedBlocksUl
attr title  "LTE Avg Served Blocks Ul, lteAvg"
attr unit  blocks
scalar CAIN.eNodeB[0].nic.mac 	avgServedBlocksDl:lteAvg 	0
attr source  avgServedBlocksDl
attr title  "LTE Avg Served Blocks Dl, lteAvg"
attr unit  blocks
scalar CAIN.eNodeB[0].nic.mac 	cellBlocksUtilizationUl:lteAvg 	0
attr source  cellBlocksUtilizationUl
attr title  "LTE Cell Blocks Utilization Ul, lteAvg"
attr unit  blocks
scalar CAIN.eNodeB[0].nic.mac 	cellBlocksUtilizationDl:lteAvg 	0
attr source  cellBlocksUtilizationDl
attr title  "LTE Cell Blocks Utilization Dl, lteAvg"
attr unit  blocks
scalar CAIN.eNodeB[0].nic.mac 	devsRelaySignal:count 	8
attr interpolationmode  none
attr title  "# of unique relay devcies, count"
scalar CAIN.eNodeB[0].nic.mac 	devsRelaySignal:max 	8
attr interpolationmode  none
attr title  "# of unique relay devcies, max"
scalar CAIN.eNodeB[0].nic.mac 	devsRelaySignal:last 	8
attr interpolationmode  none
attr title  "# of unique relay devcies, last"
scalar CAIN.eNodeB[0].nic.mac 	lteMsgSignal:count 	0
attr interpolationmode  none
attr title  "# of LTE message arriving at the BS, count"
scalar CAIN.eNodeB[0].nic.mac 	lteMsgSignal:max 	-nan
attr interpolationmode  none
attr title  "# of LTE message arriving at the BS, max"
scalar CAIN.eNodeB[0].nic.mac 	lteMsgSignal:last 	-nan
attr interpolationmode  none
attr title  "# of LTE message arriving at the BS, last"
scalar CAIN.eNodeB[0].nic.mac 	dirMsgSignal:count 	11744
attr interpolationmode  none
attr title  "# of direct CAIN message arriving at the BS, count"
scalar CAIN.eNodeB[0].nic.mac 	dirMsgSignal:max 	11744
attr interpolationmode  none
attr title  "# of direct CAIN message arriving at the BS, max"
scalar CAIN.eNodeB[0].nic.mac 	dirMsgSignal:last 	11744
attr interpolationmode  none
attr title  "# of direct CAIN message arriving at the BS, last"
scalar CAIN.eNodeB[0].nic.mac 	socialMsg:count 	0
attr interpolationmode  none
attr title  "# of social message arriving at the BS, count"
scalar CAIN.eNodeB[0].nic.mac 	socialMsg:max 	-nan
attr interpolationmode  none
attr title  "# of social message arriving at the BS, max"
scalar CAIN.eNodeB[0].nic.mac 	socialMsg:last 	-nan
attr interpolationmode  none
attr title  "# of social message arriving at the BS, last"
scalar CAIN.eNodeB[0].nic.mac 	racServedDevsSignal:count 	27487
attr interpolationmode  none
attr title  "# of devices served on rac arriavall, count"
scalar CAIN.eNodeB[0].nic.mac 	racServedDevsSignal:max 	0
attr interpolationmode  none
attr title  "# of devices served on rac arriavall, max"
scalar CAIN.eNodeB[0].nic.mac 	racServedDevsSignal:last 	0
attr interpolationmode  none
attr title  "# of devices served on rac arriavall, last"
scalar CAIN.eNodeB[0].nic.mac 	racDistanceSignal:count 	27487
attr interpolationmode  none
attr title  "Rac distance to enb, count"
scalar CAIN.eNodeB[0].nic.mac 	racpkt:count 	27487
attr interpolationmode  none
attr title  "eNB received racpkt message, count"
scalar CAIN.eNodeB[0].nic.mac 	TotalServedDevs:count 	0
attr interpolationmode  none
attr title  "# of total devices served, count"
scalar CAIN.eNodeB[0].nic.mac 	TotalServedDevs:max 	-nan
attr interpolationmode  none
attr title  "# of total devices served, max"
scalar CAIN.eNodeB[0].nic.mac 	TotalServedDevs:last 	-nan
attr interpolationmode  none
attr title  "# of total devices served, last"
scalar CAIN.eNodeB[0].nic.mac 	ServedHopDevs:count 	2944
attr interpolationmode  none
attr title  "# of devices served on hop forwarding, count"
scalar CAIN.eNodeB[0].nic.mac 	ServedHopDevs:max 	10
attr interpolationmode  none
attr title  "# of devices served on hop forwarding, max"
scalar CAIN.eNodeB[0].nic.mac 	ServedHopDevs:last 	10
attr interpolationmode  none
attr title  "# of devices served on hop forwarding, last"
scalar CAIN.eNodeB[0].nic.mac 	ServedDevs:count 	4927
attr interpolationmode  none
attr title  "# of devices served on cain forwarding, count"
scalar CAIN.eNodeB[0].nic.mac 	ServedDevs:max 	9
attr interpolationmode  none
attr title  "# of devices served on cain forwarding, max"
scalar CAIN.eNodeB[0].nic.mac 	ServedDevs:last 	9
attr interpolationmode  none
attr title  "# of devices served on cain forwarding, last"
scalar CAIN.eNodeB[0].nic.mac 	HopDistanceSignal:count 	0
attr interpolationmode  none
attr title  "Distance to enb with hop forwarding, count"
scalar CAIN.eNodeB[0].nic.mac 	HopDistanceSignal:max 	-nan
attr interpolationmode  none
attr title  "Distance to enb with hop forwarding, max"
scalar CAIN.eNodeB[0].nic.mac 	DistanceSignal:count 	27487
attr interpolationmode  none
attr title  "Distance to enb, count"
scalar CAIN.eNodeB[0].nic.mac 	DistanceSignal:max 	991
attr interpolationmode  none
attr title  "Distance to enb, max"
scalar CAIN.eNodeB[0].nic.mac 	CainHopMessageSent:count 	0
attr interpolationmode  none
attr title  "# of Sent CAIN hop message, count"
scalar CAIN.eNodeB[0].nic.mac 	CainMessageSent:count 	0
attr interpolationmode  none
attr title  "# of Sent CAIN message, count"
scalar CAIN.eNodeB[0].nic.mac 	DropedHopMessage:count 	0
attr interpolationmode  none
attr title  "Droped Hop CAIN message due to RB not available, count"
scalar CAIN.eNodeB[0].nic.mac 	DropedCainMessage:count 	0
attr interpolationmode  none
attr title  "Droped CAIN message due to RB not available, count"
scalar CAIN.eNodeB[0].nic.mac 	CainHopMessage:count 	2944
attr interpolationmode  none
attr title  "eNB received CAIN hop message, count"
scalar CAIN.eNodeB[0].nic.mac 	CainMessage:count 	4927
attr interpolationmode  none
attr title  "eNB received CAIN message, count"
scalar CAIN.eNodeB[0].nic.mac 	measuredItbs:mean 	-nan
attr source  measuredItbs
attr title  "TBS index, mean"
attr unit  ""
scalar CAIN.eNodeB[0].nic.mac 	harqErrorRate_4th_D2D:mean 	-nan
attr source  harqErrorRate_4th_D2D
attr title  "Harq Error Rate D2D, mean"
attr unit  ""
scalar CAIN.eNodeB[0].nic.mac 	harqErrorRate_4th_Dl:mean 	-nan
attr source  harqErrorRate_4th_Dl
attr title  "Harq Error Rate Dl, mean"
attr unit  ""
scalar CAIN.eNodeB[0].nic.mac 	harqErrorRate_4th_Ul:mean 	-nan
attr source  harqErrorRate_4th_Ul
attr title  "Harq Error Rate Dl, mean"
attr unit  ""
scalar CAIN.eNodeB[0].nic.mac 	harqErrorRate_3rd_D2D:mean 	-nan
attr source  harqErrorRate_3rd_D2D
attr title  "Harq Error Rate D2D, mean"
attr unit  ""
scalar CAIN.eNodeB[0].nic.mac 	harqErrorRate_3rd_Dl:mean 	-nan
attr source  harqErrorRate_3rd_Dl
attr title  "Harq Error Rate Dl, mean"
attr unit  ""
scalar CAIN.eNodeB[0].nic.mac 	harqErrorRate_3rd_Ul:mean 	-nan
attr source  harqErrorRate_3rd_Ul
attr title  "Harq Error Rate Dl, mean"
attr unit  ""
scalar CAIN.eNodeB[0].nic.mac 	harqErrorRate_2nd_D2D:mean 	-nan
attr source  harqErrorRate_2nd_D2D
attr title  "Harq Error Rate D2D, mean"
attr unit  ""
scalar CAIN.eNodeB[0].nic.mac 	harqErrorRate_2nd_Dl:mean 	-nan
attr source  harqErrorRate_2nd_Dl
attr title  "Harq Error Rate Dl, mean"
attr unit  ""
scalar CAIN.eNodeB[0].nic.mac 	harqErrorRate_2nd_Ul:mean 	-nan
attr source  harqErrorRate_2nd_Ul
attr title  "Harq Error Rate Dl, mean"
attr unit  ""
scalar CAIN.eNodeB[0].nic.mac 	harqErrorRate_1st_D2D:mean 	-nan
attr source  harqErrorRate_1st_D2D
attr title  "Harq Error Rate D2D, mean"
attr unit  ""
scalar CAIN.eNodeB[0].nic.mac 	harqErrorRate_1st_Dl:mean 	-nan
attr source  harqErrorRate_1st_Dl
attr title  "Harq Error Rate Dl, mean"
attr unit  ""
scalar CAIN.eNodeB[0].nic.mac 	harqErrorRate_1st_Ul:mean 	-nan
attr source  harqErrorRate_1st_Ul
attr title  "Harq Error Rate Dl, mean"
attr unit  ""
scalar CAIN.eNodeB[0].nic.mac 	harqErrorRateD2D:mean 	-nan
attr source  harqErrorRateD2D
attr title  "Harq Error Rate D2D, mean"
attr unit  ""
scalar CAIN.eNodeB[0].nic.mac 	harqErrorRateDl:mean 	-nan
attr source  harqErrorRateDl
attr title  "Harq Error Rate Dl, mean"
attr unit  ""
scalar CAIN.eNodeB[0].nic.mac 	harqErrorRateUl:mean 	-nan
attr source  harqErrorRateUl
attr title  "Harq Error Rate Dl, mean"
attr unit  ""
scalar CAIN.eNodeB[0].nic.mac 	macPacketLossD2D:mean 	-nan
attr source  macPacketLossD2D
attr title  "Mac Packet Loss D2D, mean"
attr unit  ""
scalar CAIN.eNodeB[0].nic.mac 	macPacketLossDl:mean 	-nan
attr source  macPacketLossDl
attr title  "Mac Packet Loss, mean"
attr unit  ""
scalar CAIN.eNodeB[0].nic.mac 	macPacketLossUl:mean 	-nan
attr source  macPacketLossUl
attr title  "Mac Packet Loss, mean"
attr unit  ""
scalar CAIN.eNodeB[0].nic.mac 	macCellPacketLossD2D:mean 	-nan
attr source  macCellPacketLossD2D
attr title  "Mac Cell Packet Loss D2D, mean"
attr unit  ""
scalar CAIN.eNodeB[0].nic.mac 	macCellPacketLossUl:mean 	-nan
attr source  macCellPacketLossUl
attr title  "Mac Cell Packet Loss, mean"
attr unit  ""
scalar CAIN.eNodeB[0].nic.mac 	macCellPacketLossDl:mean 	-nan
attr source  macCellPacketLossDl
attr title  "Mac Cell Packet Loss, mean"
attr unit  ""
scalar CAIN.eNodeB[0].nic.mac 	sentPacketToLowerLayer:count 	7872
attr interpolationmode  none
attr source  sentPacketToLowerLayer
scalar CAIN.eNodeB[0].nic.mac 	sentPacketToLowerLayer:sum(packetBytes) 	0
attr interpolationmode  none
attr source  sentPacketToLowerLayer
scalar CAIN.eNodeB[0].nic.mac 	sentPacketToUpperLayer:count 	0
attr interpolationmode  none
attr source  sentPacketToUpperLayer
scalar CAIN.eNodeB[0].nic.mac 	sentPacketToUpperLayer:sum(packetBytes) 	0
attr interpolationmode  none
attr source  sentPacketToUpperLayer
scalar CAIN.eNodeB[0].nic.mac 	receivedPacketFromLowerLayer:count 	43964
attr interpolationmode  none
attr source  receivedPacketFromLowerLayer
scalar CAIN.eNodeB[0].nic.mac 	receivedPacketFromLowerLayer:sum(packetBytes) 	0
attr interpolationmode  none
attr source  receivedPacketFromLowerLayer
scalar CAIN.eNodeB[0].nic.mac 	receivedPacketFromUpperLayer:count 	0
attr interpolationmode  none
attr source  receivedPacketFromUpperLayer
scalar CAIN.eNodeB[0].nic.mac 	receivedPacketFromUpperLayer:sum(packetBytes) 	0
attr interpolationmode  none
attr source  receivedPacketFromUpperLayer
statistic CAIN.eNodeB[0].pppIf.queue 	queueingTime:histogram
field count 0
field mean -nan
field stddev -nan
field sum 0
field sqrsum 0
field min -nan
field max -nan
attr interpolationmode  none
attr title  "queueing time, histogram"
bin	-INF	0
bin	-0.5	0
bin	-0.46666666666667	0
bin	-0.43333333333333	0
bin	-0.4	0
bin	-0.36666666666667	0
bin	-0.33333333333333	0
bin	-0.3	0
bin	-0.26666666666667	0
bin	-0.23333333333333	0
bin	-0.2	0
bin	-0.16666666666667	0
bin	-0.13333333333333	0
bin	-0.1	0
bin	-0.066666666666667	0
bin	-0.033333333333333	0
bin	0	0
bin	0.033333333333333	0
bin	0.066666666666667	0
bin	0.1	0
bin	0.13333333333333	0
bin	0.16666666666667	0
bin	0.2	0
bin	0.23333333333333	0
bin	0.26666666666667	0
bin	0.3	0
bin	0.33333333333333	0
bin	0.36666666666667	0
bin	0.4	0
bin	0.43333333333333	0
bin	0.46666666666667	0
bin	0.5	0
scalar CAIN.eNodeB[0].pppIf.queue 	dropPk:count 	0
attr interpolationmode  none
attr source  dropPkByQueue
attr title  "dropped packets, count"
scalar CAIN.eNodeB[0].pppIf.queue 	dropPk:sum(packetBytes) 	0
attr interpolationmode  none
attr source  dropPkByQueue
attr title  "dropped packets, sum(packetBytes)"
scalar CAIN.eNodeB[0].pppIf.queue 	queueLength:max 	0
attr interpolationmode  sample-hold
attr title  "queue length, max"
scalar CAIN.eNodeB[0].pppIf.queue 	queueLength:timeavg 	0
attr interpolationmode  sample-hold
attr title  "queue length, timeavg"
scalar CAIN.eNodeB[0].pppIf.queue 	rcvdPk:count 	0
attr interpolationmode  none
attr title  "received packets, count"
scalar CAIN.eNodeB[0].pppIf.queue 	rcvdPk:sum(packetBytes) 	0
attr interpolationmode  none
attr title  "received packets, sum(packetBytes)"
scalar CAIN.eNodeB[0].pppIf.ppp 	txState:timeavg 	0
attr interpolationmode  sample-hold
attr title  "tx state, timeavg"
scalar CAIN.eNodeB[0].pppIf.ppp 	droppedPkIfaceDown:count 	0
attr interpolationmode  none
attr source  dropPkIfaceDown
attr title  "packets dropped/interface down, count"
[...]
scalar CAIN.ueD2DTx[18].nic.mac 	ServedHopDevs:count 	0
attr interpolationmode  none
attr title  "# of devices served on hop forwarding, count"
scalar CAIN.ueD2DTx[18].nic.mac 	ServedHopDevs:max 	-nan
attr interpolationmode  none
attr title  "# of devices served on hop forwarding, max"
scalar CAIN.ueD2DTx[18].nic.mac 	ServedHopDevs:last 	-nan
attr interpolationmode  none
attr title  "# of devices served on hop forwarding, last"
scalar CAIN.ueD2DTx[18].nic.mac 	ServedDevs:count 	0
attr interpolationmode  none
attr title  "# of devices served on cain forwarding, count"
scalar CAIN.ueD2DTx[18].nic.mac 	ServedDevs:max 	-nan
attr interpolationmode  none
attr title  "# of devices served on cain forwarding, max"
scalar CAIN.ueD2DTx[18].nic.mac 	ServedDevs:last 	-nan
attr interpolationmode  none
attr title  "# of devices served on cain forwarding, last"
scalar CAIN.ueD2DTx[18].nic.mac 	HopDistanceSignal:count 	0
attr interpolationmode  none
attr title  "Distance to enb with hop forwarding, count"
scalar CAIN.ueD2DTx[18].nic.mac 	HopDistanceSignal:max 	-nan
attr interpolationmode  none
attr title  "Distance to enb with hop forwarding, max"
scalar CAIN.ueD2DTx[18].nic.mac 	DistanceSignal:count 	0
attr interpolationmode  none
attr title  "Distance to enb, count"
scalar CAIN.ueD2DTx[18].nic.mac 	DistanceSignal:max 	-nan
attr interpolationmode  none
attr title  "Distance to enb, max"
scalar CAIN.ueD2DTx[18].nic.mac 	CainHopMessageSent:count 	0
attr interpolationmode  none
attr title  "# of Sent CAIN hop message, count"
scalar CAIN.ueD2DTx[18].nic.mac 	CainMessageSent:count 	0
attr interpolationmode  none
attr title  "# of Sent CAIN message, count"
scalar CAIN.ueD2DTx[18].nic.mac 	DropedHopMessage:count 	0
attr interpolationmode  none
attr title  "Droped Hop CAIN message due to RB not available, count"
scalar CAIN.ueD2DTx[18].nic.mac 	DropedCainMessage:count 	0
attr interpolationmode  none
attr title  "Droped CAIN message due to RB not available, count"
scalar CAIN.ueD2DTx[18].nic.mac 	CainHopMessage:count 	0
attr interpolationmode  none
attr title  "eNB received CAIN hop message, count"
scalar CAIN.ueD2DTx[18].nic.mac 	CainMessage:count 	0
attr interpolationmode  none
attr title  "eNB received CAIN message, count"
scalar CAIN.ueD2DTx[18].nic.mac 	measuredItbs:mean 	-nan
attr source  measuredItbs
attr title  "TBS index, mean"
attr unit  ""
scalar CAIN.ueD2DTx[18].nic.mac 	harqErrorRate_4th_D2D:mean 	-nan
attr source  harqErrorRate_4th_D2D
attr title  "Harq Error Rate D2D, mean"
attr unit  ""
scalar CAIN.ueD2DTx[18].nic.mac 	harqErrorRate_4th_Dl:mean 	-nan
attr source  harqErrorRate_4th_Dl
attr title  "Harq Error Rate Dl, mean"
attr unit  ""
scalar CAIN.ueD2DTx[18].nic.mac 	harqErrorRate_4th_Ul:mean 	-nan
attr source  harqErrorRate_4th_Ul
attr title  "Harq Error Rate Dl, mean"
attr unit  ""
scalar CAIN.ueD2DTx[18].nic.mac 	harqErrorRate_3rd_D2D:mean 	-nan
attr source  harqErrorRate_3rd_D2D
attr title  "Harq Error Rate D2D, mean"
attr unit  ""
scalar CAIN.ueD2DTx[18].nic.mac 	harqErrorRate_3rd_Dl:mean 	-nan
attr source  harqErrorRate_3rd_Dl
attr title  "Harq Error Rate Dl, mean"
attr unit  ""
scalar CAIN.ueD2DTx[18].nic.mac 	harqErrorRate_3rd_Ul:mean 	-nan
attr source  harqErrorRate_3rd_Ul
attr title  "Harq Error Rate Dl, mean"
attr unit  ""
scalar CAIN.ueD2DTx[18].nic.mac 	harqErrorRate_2nd_D2D:mean 	-nan
attr source  harqErrorRate_2nd_D2D
attr title  "Harq Error Rate D2D, mean"
attr unit  ""
scalar CAIN.ueD2DTx[18].nic.mac 	harqErrorRate_2nd_Dl:mean 	-nan
attr source  harqErrorRate_2nd_Dl
attr title  "Harq Error Rate Dl, mean"
attr unit  ""
scalar CAIN.ueD2DTx[18].nic.mac 	harqErrorRate_2nd_Ul:mean 	-nan
attr source  harqErrorRate_2nd_Ul
attr title  "Harq Error Rate Dl, mean"
attr unit  ""
scalar CAIN.ueD2DTx[18].nic.mac 	harqErrorRate_1st_D2D:mean 	-nan
attr source  harqErrorRate_1st_D2D
attr title  "Harq Error Rate D2D, mean"
attr unit  ""
scalar CAIN.ueD2DTx[18].nic.mac 	harqErrorRate_1st_Dl:mean 	-nan
attr source  harqErrorRate_1st_Dl
attr title  "Harq Error Rate Dl, mean"
attr unit  ""
scalar CAIN.ueD2DTx[18].nic.mac 	harqErrorRate_1st_Ul:mean 	-nan
attr source  harqErrorRate_1st_Ul
attr title  "Harq Error Rate Dl, mean"
attr unit  ""
scalar CAIN.ueD2DTx[18].nic.mac 	harqErrorRateD2D:mean 	-nan
attr source  harqErrorRateD2D
attr title  "Harq Error Rate D2D, mean"
attr unit  ""
scalar CAIN.ueD2DTx[18].nic.mac 	harqErrorRateDl:mean 	-nan
attr source  harqErrorRateDl
attr title  "Harq Error Rate Dl, mean"
attr unit  ""
scalar CAIN.ueD2DTx[18].nic.mac 	harqErrorRateUl:mean 	-nan
attr source  harqErrorRateUl
attr title  "Harq Error Rate Dl, mean"
attr unit  ""
scalar CAIN.ueD2DTx[18].nic.mac 	macPacketLossD2D:mean 	-nan
attr source  macPacketLossD2D
attr title  "Mac Packet Loss D2D, mean"
attr unit  ""
scalar CAIN.ueD2DTx[18].nic.mac 	macPacketLossDl:mean 	-nan
attr source  macPacketLossDl
attr title  "Mac Packet Loss, mean"
attr unit  ""
scalar CAIN.ueD2DTx[18].nic.mac 	macPacketLossUl:mean 	-nan
attr source  macPacketLossUl
attr title  "Mac Packet Loss, mean"
attr unit  ""
scalar CAIN.ueD2DTx[18].nic.mac 	macCellPacketLossD2D:mean 	-nan
attr source  macCellPacketLossD2D
attr title  "Mac Cell Packet Loss D2D, mean"
attr unit  ""
scalar CAIN.ueD2DTx[18].nic.mac 	macCellPacketLossUl:mean 	-nan
attr source  macCellPacketLossUl
attr title  "Mac Cell Packet Loss, mean"
attr unit  ""
scalar CAIN.ueD2DTx[18].nic.mac 	macCellPacketLossDl:mean 	-nan
attr source  macCellPacketLossDl
attr title  "Mac Cell Packet Loss, mean"
attr unit  ""
scalar CAIN.ueD2DTx[18].nic.mac 	sentPacketToLowerLayer:count 	2103
attr interpolationmode  none
attr source  sentPacketToLowerLayer
scalar CAIN.ueD2DTx[18].nic.mac 	sentPacketToLowerLayer:sum(packetBytes) 	0
attr interpolationmode  none
attr source  sentPacketToLowerLayer
scalar CAIN.ueD2DTx[18].nic.mac 	sentPacketToUpperLayer:count 	0
attr interpolationmode  none
attr source  sentPacketToUpperLayer
scalar CAIN.ueD2DTx[18].nic.mac 	sentPacketToUpperLayer:sum(packetBytes) 	0
attr interpolationmode  none
attr source  sentPacketToUpperLayer
scalar CAIN.ueD2DTx[18].nic.mac 	receivedPacketFromLowerLayer:count 	720
attr interpolationmode  none
attr source  receivedPacketFromLowerLayer
scalar CAIN.ueD2DTx[18].nic.mac 	receivedPacketFromLowerLayer:sum(packetBytes) 	0
attr interpolationmode  none
attr source  receivedPacketFromLowerLayer
scalar CAIN.ueD2DTx[18].nic.mac 	receivedPacketFromUpperLayer:count 	3
attr interpolationmode  none
attr source  receivedPacketFromUpperLayer
scalar CAIN.ueD2DTx[18].nic.mac 	receivedPacketFromUpperLayer:sum(packetBytes) 	135
attr interpolationmode  none
attr source  receivedPacketFromUpperLayer
scalar CAIN.ueD2DTx[18].networkLayer.arp 	failedARPResolution:count 	0
attr title  "ARP failed resolutions, count"
scalar CAIN.ueD2DTx[18].networkLayer.arp 	completedARPResolution:count 	0
attr title  "ARP completed resolutions, count"
scalar CAIN.ueD2DTx[18].networkLayer.arp 	initiatedARPResolution:count 	0
attr title  "ARP initiated resolutions, count"
scalar CAIN.ueD2DTx[18].networkLayer.arp 	sentReply:count 	0
attr title  "ARP replies sent, count"
scalar CAIN.ueD2DTx[18].networkLayer.arp 	sentReq:count 	0
attr title  "ARP request sent, count"
scalar CAIN.ueD2DTx[19].tcpApp[0] 	bytesRcvd 	0
scalar CAIN.ueD2DTx[19].tcpApp[0] 	bytesSent 	0
scalar CAIN.ueD2DTx[19].tcpApp[0] 	rcvdPk:count 	0
attr interpolationmode  none
attr source  rcvdPk
attr title  "packets received, count"
scalar CAIN.ueD2DTx[19].tcpApp[0] 	rcvdPk:sum(packetBytes) 	0
attr interpolationmode  none
attr source  rcvdPk
attr title  "packets received, sum(packetBytes)"
statistic CAIN.ueD2DTx[19].tcpApp[0] 	endToEndDelay:histogram
field count 0
field mean -nan
field stddev -nan
field sum 0
field sqrsum 0
field min -nan
field max -nan
attr interpolationmode  none
attr source  messageAge(rcvdPk)
attr title  "end-to-end delay, histogram"
attr unit  s
bin	-INF	0
bin	-0.5	0
bin	-0.46666666666667	0
bin	-0.43333333333333	0
bin	-0.4	0
bin	-0.36666666666667	0
bin	-0.33333333333333	0
bin	-0.3	0
bin	-0.26666666666667	0
bin	-0.23333333333333	0
bin	-0.2	0
bin	-0.16666666666667	0
bin	-0.13333333333333	0
bin	-0.1	0
bin	-0.066666666666667	0
bin	-0.033333333333333	0
bin	0	0
bin	0.033333333333333	0
bin	0.066666666666667	0
bin	0.1	0
bin	0.13333333333333	0
bin	0.16666666666667	0
bin	0.2	0
bin	0.23333333333333	0
bin	0.26666666666667	0
bin	0.3	0
bin	0.33333333333333	0
bin	0.36666666666667	0
bin	0.4	0
bin	0.43333333333333	0
bin	0.46666666666667	0
bin	0.5	0
scalar CAIN.ueD2DTx[19].tcpApp[0] 	sentPk:count 	0
attr interpolationmode  none
attr source  sentPk
attr title  "packets sent, count"
scalar CAIN.ueD2DTx[19].tcpApp[0] 	sentPk:sum(packetBytes) 	0
attr interpolationmode  none
attr source  sentPk
attr title  "packets sent, sum(packetBytes)"
scalar CAIN.ueD2DTx[19].nic.pdcpRrc 	sentPacketToLowerLayer:count 	3
attr interpolationmode  none
attr source  sentPacketToLowerLayer
scalar CAIN.ueD2DTx[19].nic.pdcpRrc 	sentPacketToLowerLayer:sum(packetBytes) 	135
attr interpolationmode  none
attr source  sentPacketToLowerLayer
scalar CAIN.ueD2DTx[19].nic.pdcpRrc 	sentPacketToUpperLayer:count 	0
attr interpolationmode  none
attr source  sentPacketToUpperLayer
scalar CAIN.ueD2DTx[19].nic.pdcpRrc 	sentPacketToUpperLayer:sum(packetBytes) 	0
attr interpolationmode  none
attr source  sentPacketToUpperLayer
scalar CAIN.ueD2DTx[19].nic.pdcpRrc 	receivedPacketFromLowerLayer:count 	0
attr interpolationmode  none
attr source  receivedPacketFromLowerLayer
scalar CAIN.ueD2DTx[19].nic.pdcpRrc 	receivedPacketFromLowerLayer:sum(packetBytes) 	0
attr interpolationmode  none
attr source  receivedPacketFromLowerLayer
scalar CAIN.ueD2DTx[19].nic.pdcpRrc 	receivedPacketFromUpperLayer:count 	3
attr interpolationmode  none
attr source  receivedPacketFromUpperLayer
scalar CAIN.ueD2DTx[19].nic.pdcpRrc 	receivedPacketFromUpperLayer:sum(packetBytes) 	132
attr interpolationmode  none
attr source  receivedPacketFromUpperLayer
scalar CAIN.ueD2DTx[19].nic.mac 	devsRelaySignal:count 	0
attr interpolationmode  none
attr title  "# of unique relay devcies, count"
scalar CAIN.ueD2DTx[19].nic.mac 	devsRelaySignal:max 	-nan
attr interpolationmode  none
attr title  "# of unique relay devcies, max"
scalar CAIN.ueD2DTx[19].nic.mac 	devsRelaySignal:last 	-nan
attr interpolationmode  none
attr title  "# of unique relay devcies, last"
scalar CAIN.ueD2DTx[19].nic.mac 	lteMsgSignal:count 	0
attr interpolationmode  none
attr title  "# of LTE message arriving at the BS, count"
scalar CAIN.ueD2DTx[19].nic.mac 	lteMsgSignal:max 	-nan
attr interpolationmode  none
attr title  "# of LTE message arriving at the BS, max"
scalar CAIN.ueD2DTx[19].nic.mac 	lteMsgSignal:last 	-nan
attr interpolationmode  none
attr title  "# of LTE message arriving at the BS, last"
scalar CAIN.ueD2DTx[19].nic.mac 	dirMsgSignal:count 	0
attr interpolationmode  none
attr title  "# of direct CAIN message arriving at the BS, count"
scalar CAIN.ueD2DTx[19].nic.mac 	dirMsgSignal:max 	-nan
attr interpolationmode  none
attr title  "# of direct CAIN message arriving at the BS, max"
scalar CAIN.ueD2DTx[19].nic.mac 	dirMsgSignal:last 	-nan
attr interpolationmode  none
attr title  "# of direct CAIN message arriving at the BS, last"
scalar CAIN.ueD2DTx[19].nic.mac 	socialMsg:count 	0
attr interpolationmode  none
attr title  "# of social message arriving at the BS, count"
scalar CAIN.ueD2DTx[19].nic.mac 	socialMsg:max 	-nan
attr interpolationmode  none
attr title  "# of social message arriving at the BS, max"
scalar CAIN.ueD2DTx[19].nic.mac 	socialMsg:last 	-nan
attr interpolationmode  none
attr title  "# of social message arriving at the BS, last"
scalar CAIN.ueD2DTx[19].nic.mac 	racServedDevsSignal:count 	0
attr interpolationmode  none
attr title  "# of devices served on rac arriavall, count"
scalar CAIN.ueD2DTx[19].nic.mac 	racServedDevsSignal:max 	-nan
attr interpolationmode  none
attr title  "# of devices served on rac arriavall, max"
scalar CAIN.ueD2DTx[19].nic.mac 	racServedDevsSignal:last 	-nan
attr interpolationmode  none
attr title  "# of devices served on rac arriavall, last"
scalar CAIN.ueD2DTx[19].nic.mac 	racDistanceSignal:count 	0
attr interpolationmode  none
attr title  "Rac distance to enb, count"
scalar CAIN.ueD2DTx[19].nic.mac 	racpkt:count 	0
attr interpolationmode  none
attr title  "eNB received racpkt message, count"
scalar CAIN.ueD2DTx[19].nic.mac 	TotalServedDevs:count 	0
attr interpolationmode  none
attr title  "# of total devices served, count"
scalar CAIN.ueD2DTx[19].nic.mac 	TotalServedDevs:max 	-nan
attr interpolationmode  none
attr title  "# of total devices served, max"
scalar CAIN.ueD2DTx[19].nic.mac 	TotalServedDevs:last 	-nan
attr interpolationmode  none
attr title  "# of total devices served, last"
scalar CAIN.ueD2DTx[19].nic.mac 	ServedHopDevs:count 	0
attr interpolationmode  none
attr title  "# of devices served on hop forwarding, count"
scalar CAIN.ueD2DTx[19].nic.mac 	ServedHopDevs:max 	-nan
attr interpolationmode  none
attr title  "# of devices served on hop forwarding, max"
scalar CAIN.ueD2DTx[19].nic.mac 	ServedHopDevs:last 	-nan
attr interpolationmode  none
attr title  "# of devices served on hop forwarding, last"
scalar CAIN.ueD2DTx[19].nic.mac 	ServedDevs:count 	0
attr interpolationmode  none
attr title  "# of devices served on cain forwarding, count"
scalar CAIN.ueD2DTx[19].nic.mac 	ServedDevs:max 	-nan
attr interpolationmode  none
attr title  "# of devices served on cain forwarding, max"
scalar CAIN.ueD2DTx[19].nic.mac 	ServedDevs:last 	-nan
attr interpolationmode  none
attr title  "# of devices served on cain forwarding, last"
scalar CAIN.ueD2DTx[19].nic.mac 	HopDistanceSignal:count 	0
attr interpolationmode  none
attr title  "Distance to enb with hop forwarding, count"
scalar CAIN.ueD2DTx[19].nic.mac 	HopDistanceSignal:max 	-nan
attr interpolationmode  none
attr title  "Distance to enb with hop forwarding, max"
scalar CAIN.ueD2DTx[19].nic.mac 	DistanceSignal:count 	0
attr interpolationmode  none
attr title  "Distance to enb, count"
scalar CAIN.ueD2DTx[19].nic.mac 	DistanceSignal:max 	-nan
attr interpolationmode  none
attr title  "Distance to enb, max"
scalar CAIN.ueD2DTx[19].nic.mac 	CainHopMessageSent:count 	552
attr interpolationmode  none
attr title  "# of Sent CAIN hop message, count"
scalar CAIN.ueD2DTx[19].nic.mac 	CainMessageSent:count 	1001
attr interpolationmode  none
attr title  "# of Sent CAIN message, count"
scalar CAIN.ueD2DTx[19].nic.mac 	DropedHopMessage:count 	0
attr interpolationmode  none
attr title  "Droped Hop CAIN message due to RB not available, count"
scalar CAIN.ueD2DTx[19].nic.mac 	DropedCainMessage:count 	0
attr interpolationmode  none
attr title  "Droped CAIN message due to RB not available, count"
scalar CAIN.ueD2DTx[19].nic.mac 	CainHopMessage:count 	0
attr interpolationmode  none
attr title  "eNB received CAIN hop message, count"
scalar CAIN.ueD2DTx[19].nic.mac 	CainMessage:count 	0
attr interpolationmode  none
attr title  "eNB received CAIN message, count"
scalar CAIN.ueD2DTx[19].nic.mac 	measuredItbs:mean 	-nan
attr source  measuredItbs
attr title  "TBS index, mean"
attr unit  ""
scalar CAIN.ueD2DTx[19].nic.mac 	harqErrorRate_4th_D2D:mean 	-nan
attr source  harqErrorRate_4th_D2D
attr title  "Harq Error Rate D2D, mean"
attr unit  ""
scalar CAIN.ueD2DTx[19].nic.mac 	harqErrorRate_4th_Dl:mean 	-nan
attr source  harqErrorRate_4th_Dl
attr title  "Harq Error Rate Dl, mean"
attr unit  ""
scalar CAIN.ueD2DTx[19].nic.mac 	harqErrorRate_4th_Ul:mean 	-nan
attr source  harqErrorRate_4th_Ul
attr title  "Harq Error Rate Dl, mean"
attr unit  ""
scalar CAIN.ueD2DTx[19].nic.mac 	harqErrorRate_3rd_D2D:mean 	-nan
attr source  harqErrorRate_3rd_D2D
attr title  "Harq Error Rate D2D, mean"
attr unit  ""
scalar CAIN.ueD2DTx[19].nic.mac 	harqErrorRate_3rd_Dl:mean 	-nan
attr source  harqErrorRate_3rd_Dl
attr title  "Harq Error Rate Dl, mean"
attr unit  ""
scalar CAIN.ueD2DTx[19].nic.mac 	harqErrorRate_3rd_Ul:mean 	-nan
attr source  harqErrorRate_3rd_Ul
attr title  "Harq Error Rate Dl, mean"
attr unit  ""
scalar CAIN.ueD2DTx[19].nic.mac 	harqErrorRate_2nd_D2D:mean 	-nan
attr source  harqErrorRate_2nd_D2D
attr title  "Harq Error Rate D2D, mean"
attr unit  ""
scalar CAIN.ueD2DTx[19].nic.mac 	harqErrorRate_2nd_Dl:mean 	-nan
attr source  harqErrorRate_2nd_Dl
attr title  "Harq Error Rate Dl, mean"
attr unit  ""
scalar CAIN.ueD2DTx[19].nic.mac 	harqErrorRate_2nd_Ul:mean 	-nan
attr source  harqErrorRate_2nd_Ul
attr title  "Harq Error Rate Dl, mean"
attr unit  ""
scalar CAIN.ueD2DTx[19].nic.mac 	harqErrorRate_1st_D2D:mean 	-nan
attr source  harqErrorRate_1st_D2D
attr title  "Harq Error Rate D2D, mean"
attr unit  ""
scalar CAIN.ueD2DTx[19].nic.mac 	harqErrorRate_1st_Dl:mean 	-nan
attr source  harqErrorRate_1st_Dl
attr title  "Harq Error Rate Dl, mean"
attr unit  ""
scalar CAIN.ueD2DTx[19].nic.mac 	harqErrorRate_1st_Ul:mean 	-nan
attr source  harqErrorRate_1st_Ul
attr title  "Harq Error Rate Dl, mean"
attr unit  ""
scalar CAIN.ueD2DTx[19].nic.mac 	harqErrorRateD2D:mean 	-nan
attr source  harqErrorRateD2D
attr title  "Harq Error Rate D2D, mean"
attr unit  ""
scalar CAIN.ueD2DTx[19].nic.mac 	harqErrorRateDl:mean 	-nan
attr source  harqErrorRateDl
attr title  "Harq Error Rate Dl, mean"
attr unit  ""
scalar CAIN.ueD2DTx[19].nic.mac 	harqErrorRateUl:mean 	-nan
attr source  harqErrorRateUl
attr title  "Harq Error Rate Dl, mean"
attr unit  ""
scalar CAIN.ueD2DTx[19].nic.mac 	macPacketLossD2D:mean 	-nan
attr source  macPacketLossD2D
attr title  "Mac Packet Loss D2D, mean"
attr unit  ""
scalar CAIN.ueD2DTx[19].nic.mac 	macPacketLossDl:mean 	-nan
attr source  macPacketLossDl
attr title  "Mac Packet Loss, mean"
attr unit  ""
scalar CAIN.ueD2DTx[19].nic.mac 	macPacketLossUl:mean 	-nan
attr source  macPacketLossUl
attr title  "Mac Packet Loss, mean"
attr unit  ""
scalar CAIN.ueD2DTx[19].nic.mac 	macCellPacketLossD2D:mean 	-nan
attr source  macCellPacketLossD2D
attr title  "Mac Cell Packet Loss D2D, mean"
attr unit  ""
scalar CAIN.ueD2DTx[19].nic.mac 	macCellPacketLossUl:mean 	-nan
attr source  macCellPacketLossUl
attr title  "Mac Cell Packet Loss, mean"
attr unit  ""
scalar CAIN.ueD2DTx[19].nic.mac 	macCellPacketLossDl:mean 	-nan
attr source  macCellPacketLossDl
attr title  "Mac Cell Packet Loss, mean"
attr unit  ""
scalar CAIN.ueD2DTx[19].nic.mac 	sentPacketToLowerLayer:count 	3873
attr interpolationmode  none
attr source  sentPacketToLowerLayer
scalar CAIN.ueD2DTx[19].nic.mac 	sentPacketToLowerLayer:sum(packetBytes) 	0
attr interpolationmode  none
attr source  sentPacketToLowerLayer
scalar CAIN.ueD2DTx[19].nic.mac 	sentPacketToUpperLayer:count 	0
attr interpolationmode  none
attr source  sentPacketToUpperLayer
scalar CAIN.ueD2DTx[19].nic.mac 	sentPacketToUpperLayer:sum(packetBytes) 	0
attr interpolationmode  none
attr source  sentPacketToUpperLayer
scalar CAIN.ueD2DTx[19].nic.mac 	receivedPacketFromLowerLayer:count 	1880
attr interpolationmode  none
attr source  receivedPacketFromLowerLayer
scalar CAIN.ueD2DTx[19].nic.mac 	receivedPacketFromLowerLayer:sum(packetBytes) 	0
attr interpolationmode  none
attr source  receivedPacketFromLowerLayer
scalar CAIN.ueD2DTx[19].nic.mac 	receivedPacketFromUpperLayer:count 	3
attr interpolationmode  none
attr source  receivedPacketFromUpperLayer
scalar CAIN.ueD2DTx[19].nic.mac 	receivedPacketFromUpperLayer:sum(packetBytes) 	135
attr interpolationmode  none
attr source  receivedPacketFromUpperLayer
scalar CAIN.ueD2DTx[19].networkLayer.arp 	failedARPResolution:count 	0
attr title  "ARP failed resolutions, count"
scalar CAIN.ueD2DTx[19].networkLayer.arp 	completedARPResolution:count 	0
attr title  "ARP completed resolutions, count"
scalar CAIN.ueD2DTx[19].networkLayer.arp 	initiatedARPResolution:count 	0
attr title  "ARP initiated resolutions, count"
scalar CAIN.ueD2DTx[19].networkLayer.arp 	sentReply:count 	0
attr title  "ARP replies sent, count"
scalar CAIN.ueD2DTx[19].networkLayer.arp 	sentReq:count 	0
attr title  "ARP request sent, count"
