file 5958570 1580764930                                         
version 2
run CAIN-176-20200203-18:21:20-699
attr configname CAIN
attr datetime 20200203-18:21:20
attr experiment CAIN
attr inifile omnetpp.ini
attr iterationvars "$0=180, $mob=\"./movements/RWPRPGM-0.5.movements\""
attr iterationvars2 "$0=180, $mob=\"./movements/RWPRPGM-0.5.movements\", $repetition=11"
attr measurement "$0=180, $mob=\"./movements/RWPRPGM-0.5.movements\""
attr mob "\"./movements/RWPRPGM-0.5.movements\""
attr network lte.simulations.networks.CAIN
attr processid 699
attr repetition 11
attr replication #11
attr resultdir results
attr runnumber 176
attr seedset 11
param **.**.amcMode "\"AUTO\""
param **.amcMode "\"D2D\""
param **.cainNetwork true
param **.channelControl.alpha 1.0
param **.channelControl.carrierFrequency 2100e+6Hz
param **.channelControl.pMax 10W
param **.d2dCqi 7
param **.deployer.numRbDl 50
param **.deployer.numRbUl 50
param **.distThresh "${170..190 step 10}"
param **.fbDelay 1
param **.feedbackComputation "xmldoc(\"config_channel.xml\")"
param **.mobility.constraintAreaMaxX 1000m
param **.mobility.constraintAreaMaxY 1000m
param **.mobility.constraintAreaMaxZ 0m
param **.mobility.constraintAreaMinX 0m
param **.mobility.constraintAreaMinY 0m
param **.mobility.constraintAreaMinZ 0m
param **.nic.phy.channelModel "xmldoc(\"config_channel.xml\")"
param **.numBands 50
param **.pwrThresh -10
param **.qtdThresh 3
param **.rbAllocationType "\"localized\""
param **.routingRecorder.enabled false
param **.tcpApp[*].tClose -1s
param **.ueD2DTx[*].mobility.changeAngleBy "normal(0deg, 30deg)"
param **.ueD2DTx[*].mobility.changeInterval "normal(5s, 0.1s)"
param **.ueD2DTx[*].mobility.nodeId -1
param **.ueD2DTx[*].mobility.speed "normal(2mps, 0.01mps)"
param **.ueD2DTx[*].mobility.traceFile "${mob=\"./movements/RWP-0.0.movements\",\"./movements/RWP-0.5.movements\",\"./movements/RPGM-0.0.movements\",\"./movements/RPGM-0.5.movements\",\"./movements/RWPRPGM-0.0.movements\",\"./movements/RWPRPGM-0.5.movements\"}"
param **.ueD2DTx[*].mobilityType "\"BonnMotionMobility\""
param **.usePreconfiguredTxParams false
param *.eNodeB.d2dCapable false
param *.eNodeB.mobility.initFromDisplayString false
param *.eNodeB.mobility.initialX 300m
param *.eNodeB.mobility.initialY 300m
param *.eNodeB.nic.phy.enableD2DCqiReporting true
param *.eNodeB.txPower 19952.62315mw
param *.numUeCell 0
param *.numUeD2DRx 1
param *.numUeD2DTx 1
param *.ue*.macCellId 1
param *.ue*.masterId 1
param *.ue*.mobility.initFromDisplayString false
param *.ue*[0].macCellId 1
param *.ue*[0].masterId 1
param *.ue*[0].mobility.initFromDisplayString false
param *.ueD2D*.numTcpApps 1
param *.ueD2D*[*].d2dCapable true
param *.ueD2D*[0].d2dCapable false
param *.ueD2D*[0].numTcpApps 1
param *.ueD2DRx[0].mobility.initialX 310m
param *.ueD2DRx[0].mobility.initialY 350m
param *.ueD2DRx[0].tcpApp[*].localPort 1000
param *.ueD2DRx[0].tcpApp[*].typename "\"TCPSinkApp\""
param *.ueD2DTx*.tcpApp[*].connectAddress "\"ueD2DTx[0]\""
param *.ueD2DTx*.tcpApp[*].localAddress "\"ueD2DTx\""
param *.ueD2DTx*.tcpApp[*].localPort 1000
param *.ueD2DTx*.tcpApp[*].sendBytes 1GiB
param *.ueD2DTx*.tcpApp[*].typename "\"TCPSessionApp\""
param *.ueD2DTx*.tcpApp[0].active true
param *.ueD2DTx*.tcpApp[0].connectPort 1000
param *.ueD2DTx*.tcpApp[0].tOpen uniform(0.010s,0.1s)
param *.ueD2DTx*.tcpApp[0].tSend uniform(0.15s,0.5s)
param *.ueD2DTx[0].mobility.initialX 290m
param *.ueD2DTx[0].mobility.initialY 350m
param *.ueD2DTx[0].nic.d2dPeerAddresses "\"ueD2DTx[1]\""
param *.ueD2DTx[0].tcpApp[*].localPort 1000
param *.ueD2DTx[0].tcpApp[*].sendBytes 1GiB
param *.ueD2DTx[0].tcpApp[*].typename "\"TCPSessionApp\""
param *.ueD2DTx[0].tcpApp[0].active true
param *.ueD2DTx[0].tcpApp[0].connectAddress "\"ueD2DRx[0]\""
param *.ueD2DTx[0].tcpApp[0].connectPort 1000
param *.ueD2DTx[0].tcpApp[0].localAddress "\"ueD2DTx[0]\""
param *.ueD2DTx[0].tcpApp[0].tOpen uniform(0.010s,0.1s)
param *.ueD2DTx[0].tcpApp[0].tSend uniform(0.15s,0.5s)
param *.ueD2DTx[1].nic.d2dPeerAddresses "\"ueD2DTx[0]\""

vector 8  CAIN.server.ppp[0].queue  queueLength:vector  ETV
attr interpolationmode  sample-hold
attr title  "queue length, vector"
vector 9  CAIN.server.ppp[0].ppp  txState:vector  ETV
attr interpolationmode  sample-hold
attr title  "tx state, vector"
vector 24  CAIN.router.ppp[0].queue  queueLength:vector  ETV
attr interpolationmode  sample-hold
attr title  "queue length, vector"
vector 25  CAIN.router.ppp[0].ppp  txState:vector  ETV
attr interpolationmode  sample-hold
attr title  "tx state, vector"
vector 35  CAIN.router.ppp[1].queue  queueLength:vector  ETV
attr interpolationmode  sample-hold
attr title  "queue length, vector"
vector 36  CAIN.router.ppp[1].ppp  txState:vector  ETV
attr interpolationmode  sample-hold
attr title  "tx state, vector"
vector 56  CAIN.pgw.ppp[0].queue  queueLength:vector  ETV
attr interpolationmode  sample-hold
attr title  "queue length, vector"
vector 57  CAIN.pgw.ppp[0].ppp  txState:vector  ETV
attr interpolationmode  sample-hold
attr title  "tx state, vector"
vector 67  CAIN.pgw.pppInterface.queue  queueLength:vector  ETV
attr interpolationmode  sample-hold
attr title  "queue length, vector"
vector 68  CAIN.pgw.pppInterface.ppp  txState:vector  ETV
attr interpolationmode  sample-hold
attr title  "tx state, vector"
vector 104  CAIN.eNodeB.pppIf.queue  queueLength:vector  ETV
attr interpolationmode  sample-hold
attr title  "queue length, vector"
vector 105  CAIN.eNodeB.pppIf.ppp  txState:vector  ETV
attr interpolationmode  sample-hold
attr title  "tx state, vector"
vector 138  CAIN.ueD2DTx[0].nic.phy  servingCell:vector  ETV
attr source  servingCell
attr title  "ID of the serving eNodeB for the UE, vector"
attr unit  ""
vector 165  CAIN.ueD2DTx[1].nic.phy  servingCell:vector  ETV
attr source  servingCell
attr title  "ID of the serving eNodeB for the UE, vector"
attr unit  ""
vector 192  CAIN.ueD2DTx[2].nic.phy  servingCell:vector  ETV
attr source  servingCell
attr title  "ID of the serving eNodeB for the UE, vector"
attr unit  ""
vector 219  CAIN.ueD2DTx[3].nic.phy  servingCell:vector  ETV
attr source  servingCell
attr title  "ID of the serving eNodeB for the UE, vector"
attr unit  ""
vector 246  CAIN.ueD2DTx[4].nic.phy  servingCell:vector  ETV
attr source  servingCell
attr title  "ID of the serving eNodeB for the UE, vector"
attr unit  ""
vector 85  CAIN.eNodeB.nic.mac  receivedPacketFromLowerLayer:vector(packetBytes)  ETV
attr interpolationmode  none
attr source  receivedPacketFromLowerLayer
vector 264  CAIN.ueD2DTx[1].tcp  tcpRcvQueueBytes  ETV
vector 251  CAIN.ueD2DTx[1].tcp  "advertised window"  ETV
vector 250  CAIN.ueD2DTx[1].tcp  "receive window"  ETV
vector 253  CAIN.ueD2DTx[1].tcp  "sent ack"  ETV
vector 144  CAIN.ueD2DTx[1].nic.pdcpRrc  receivedPacketFromUpperLayer:vector(packetBytes)  ETV
attr interpolationmode  none
attr source  receivedPacketFromUpperLayer
vector 147  CAIN.ueD2DTx[1].nic.pdcpRrc  sentPacketToLowerLayer:vector(packetBytes)  ETV
attr interpolationmode  none
attr source  sentPacketToLowerLayer
vector 148  CAIN.ueD2DTx[1].nic.mac  receivedPacketFromUpperLayer:vector(packetBytes)  ETV
attr interpolationmode  none
attr source  receivedPacketFromUpperLayer
vector 151  CAIN.ueD2DTx[1].nic.mac  sentPacketToLowerLayer:vector(packetBytes)  ETV
attr interpolationmode  none
attr source  sentPacketToLowerLayer
vector 96  CAIN.eNodeB.nic.mac  racpkt:vector  ETV
attr interpolationmode  none
attr title  "eNB received racpkt message, vector"
vector 97  CAIN.eNodeB.nic.mac  racDistanceSignal:vector  ETV
attr interpolationmode  none
attr title  "Rac distance to enb, vector"
vector 87  CAIN.eNodeB.nic.mac  sentPacketToLowerLayer:vector(packetBytes)  ETV
attr interpolationmode  none
attr source  sentPacketToLowerLayer
vector 149  CAIN.ueD2DTx[1].nic.mac  receivedPacketFromLowerLayer:vector(packetBytes)  ETV
attr interpolationmode  none
attr source  receivedPacketFromLowerLayer
vector 160  CAIN.ueD2DTx[1].nic.mac  racpkt:vector  ETV
attr interpolationmode  none
attr title  "eNB received racpkt message, vector"
vector 161  CAIN.ueD2DTx[1].nic.mac  racDistanceSignal:vector  ETV
attr interpolationmode  none
attr title  "Rac distance to enb, vector"
vector 176  CAIN.ueD2DTx[2].nic.mac  receivedPacketFromLowerLayer:vector(packetBytes)  ETV
attr interpolationmode  none
attr source  receivedPacketFromLowerLayer
vector 187  CAIN.ueD2DTx[2].nic.mac  racpkt:vector  ETV
attr interpolationmode  none
attr title  "eNB received racpkt message, vector"
vector 188  CAIN.ueD2DTx[2].nic.mac  racDistanceSignal:vector  ETV
attr interpolationmode  none
attr title  "Rac distance to enb, vector"
vector 178  CAIN.ueD2DTx[2].nic.mac  sentPacketToLowerLayer:vector(packetBytes)  ETV
attr interpolationmode  none
attr source  sentPacketToLowerLayer
vector 203  CAIN.ueD2DTx[3].nic.mac  receivedPacketFromLowerLayer:vector(packetBytes)  ETV
attr interpolationmode  none
attr source  receivedPacketFromLowerLayer
vector 214  CAIN.ueD2DTx[3].nic.mac  racpkt:vector  ETV
attr interpolationmode  none
attr title  "eNB received racpkt message, vector"
vector 215  CAIN.ueD2DTx[3].nic.mac  racDistanceSignal:vector  ETV
attr interpolationmode  none
attr title  "Rac distance to enb, vector"
vector 205  CAIN.ueD2DTx[3].nic.mac  sentPacketToLowerLayer:vector(packetBytes)  ETV
attr interpolationmode  none
attr source  sentPacketToLowerLayer
vector 122  CAIN.ueD2DTx[0].nic.mac  receivedPacketFromLowerLayer:vector(packetBytes)  ETV
attr interpolationmode  none
attr source  receivedPacketFromLowerLayer
vector 133  CAIN.ueD2DTx[0].nic.mac  racpkt:vector  ETV
attr interpolationmode  none
attr title  "eNB received racpkt message, vector"
vector 134  CAIN.ueD2DTx[0].nic.mac  racDistanceSignal:vector  ETV
attr interpolationmode  none
attr title  "Rac distance to enb, vector"
vector 124  CAIN.ueD2DTx[0].nic.mac  sentPacketToLowerLayer:vector(packetBytes)  ETV
attr interpolationmode  none
attr source  sentPacketToLowerLayer
vector 230  CAIN.ueD2DTx[4].nic.mac  receivedPacketFromLowerLayer:vector(packetBytes)  ETV
attr interpolationmode  none
attr source  receivedPacketFromLowerLayer
vector 241  CAIN.ueD2DTx[4].nic.mac  racpkt:vector  ETV
attr interpolationmode  none
attr title  "eNB received racpkt message, vector"
vector 242  CAIN.ueD2DTx[4].nic.mac  racDistanceSignal:vector  ETV
attr interpolationmode  none
attr title  "Rac distance to enb, vector"
vector 232  CAIN.ueD2DTx[4].nic.mac  sentPacketToLowerLayer:vector(packetBytes)  ETV
attr interpolationmode  none
attr source  sentPacketToLowerLayer
vector 93  CAIN.eNodeB.nic.mac  ServedDevs:vector  ETV
attr interpolationmode  none
attr title  "# of devices served on cain forwarding, vector"
vector 91  CAIN.eNodeB.nic.mac  DistanceSignal:vector  ETV
attr interpolationmode  none
attr title  "Distance to enb, vector"
vector 89  CAIN.eNodeB.nic.mac  CainMessage:vector  ETV
attr interpolationmode  none
attr title  "eNB received CAIN message, vector"
vector 92  CAIN.eNodeB.nic.mac  HopDistanceSignal:vector  ETV
attr interpolationmode  none
attr title  "Distance to enb with hop forwarding, vector"
vector 90  CAIN.eNodeB.nic.mac  CainHopMessage:vector  ETV
attr interpolationmode  none
attr title  "eNB received CAIN hop message, vector"
vector 288  CAIN.ueD2DTx[0].tcp  tcpRcvQueueBytes  ETV
vector 275  CAIN.ueD2DTx[0].tcp  "advertised window"  ETV
vector 274  CAIN.ueD2DTx[0].tcp  "receive window"  ETV
vector 277  CAIN.ueD2DTx[0].tcp  "sent ack"  ETV
vector 117  CAIN.ueD2DTx[0].nic.pdcpRrc  receivedPacketFromUpperLayer:vector(packetBytes)  ETV
attr interpolationmode  none
attr source  receivedPacketFromUpperLayer
vector 120  CAIN.ueD2DTx[0].nic.pdcpRrc  sentPacketToLowerLayer:vector(packetBytes)  ETV
attr interpolationmode  none
attr source  sentPacketToLowerLayer
vector 121  CAIN.ueD2DTx[0].nic.mac  receivedPacketFromUpperLayer:vector(packetBytes)  ETV
attr interpolationmode  none
attr source  receivedPacketFromUpperLayer
vector 123  CAIN.ueD2DTx[0].nic.mac  sentPacketToUpperLayer:vector(packetBytes)  ETV
attr interpolationmode  none
attr source  sentPacketToUpperLayer
vector 99  CAIN.eNodeB.nic.phy  averageCqiUlvect:vector  ETV
attr source  averageCqiUlvect
attr title  "Average Cqi reported in UL, vector"
attr unit  cqi
vector 86  CAIN.eNodeB.nic.mac  sentPacketToUpperLayer:vector(packetBytes)  ETV
attr interpolationmode  none
attr source  sentPacketToUpperLayer
vector 81  CAIN.eNodeB.nic.pdcpRrc  receivedPacketFromLowerLayer:vector(packetBytes)  ETV
attr interpolationmode  none
attr source  receivedPacketFromLowerLayer
vector 82  CAIN.eNodeB.nic.pdcpRrc  sentPacketToUpperLayer:vector(packetBytes)  ETV
attr interpolationmode  none
attr source  sentPacketToUpperLayer
vector 80  CAIN.eNodeB.nic.pdcpRrc  receivedPacketFromUpperLayer:vector(packetBytes)  ETV
attr interpolationmode  none
attr source  receivedPacketFromUpperLayer
vector 83  CAIN.eNodeB.nic.pdcpRrc  sentPacketToLowerLayer:vector(packetBytes)  ETV
attr interpolationmode  none
attr source  sentPacketToLowerLayer
vector 84  CAIN.eNodeB.nic.mac  receivedPacketFromUpperLayer:vector(packetBytes)  ETV
attr interpolationmode  none
attr source  receivedPacketFromUpperLayer
vector 88  CAIN.eNodeB.nic.mac  measuredItbs:vector  ETV
attr source  measuredItbs
attr title  "TBS index, vector"
attr unit  ""
vector 189  CAIN.ueD2DTx[2].nic.phy  averageCqiDlvect:vector  ETV
attr source  averageCqiDlvect
attr title  "Average Cqi reported in DL, vector"
attr unit  cqi
vector 177  CAIN.ueD2DTx[2].nic.mac  sentPacketToUpperLayer:vector(packetBytes)  ETV
attr interpolationmode  none
attr source  sentPacketToUpperLayer
vector 172  CAIN.ueD2DTx[2].nic.pdcpRrc  receivedPacketFromLowerLayer:vector(packetBytes)  ETV
attr interpolationmode  none
attr source  receivedPacketFromLowerLayer
vector 173  CAIN.ueD2DTx[2].nic.pdcpRrc  sentPacketToUpperLayer:vector(packetBytes)  ETV
attr interpolationmode  none
attr source  sentPacketToUpperLayer
vector 312  CAIN.ueD2DTx[3].tcp  tcpRcvQueueBytes  ETV
vector 299  CAIN.ueD2DTx[3].tcp  "advertised window"  ETV
vector 298  CAIN.ueD2DTx[3].tcp  "receive window"  ETV
vector 301  CAIN.ueD2DTx[3].tcp  "sent ack"  ETV
vector 198  CAIN.ueD2DTx[3].nic.pdcpRrc  receivedPacketFromUpperLayer:vector(packetBytes)  ETV
attr interpolationmode  none
attr source  receivedPacketFromUpperLayer
vector 201  CAIN.ueD2DTx[3].nic.pdcpRrc  sentPacketToLowerLayer:vector(packetBytes)  ETV
attr interpolationmode  none
attr source  sentPacketToLowerLayer
vector 202  CAIN.ueD2DTx[3].nic.mac  receivedPacketFromUpperLayer:vector(packetBytes)  ETV
attr interpolationmode  none
attr source  receivedPacketFromUpperLayer
vector 204  CAIN.ueD2DTx[3].nic.mac  sentPacketToUpperLayer:vector(packetBytes)  ETV
attr interpolationmode  none
attr source  sentPacketToUpperLayer
vector 336  CAIN.ueD2DTx[2].tcp  tcpRcvQueueBytes  ETV
vector 323  CAIN.ueD2DTx[2].tcp  "advertised window"  ETV
vector 322  CAIN.ueD2DTx[2].tcp  "receive window"  ETV
vector 325  CAIN.ueD2DTx[2].tcp  "sent ack"  ETV
vector 171  CAIN.ueD2DTx[2].nic.pdcpRrc  receivedPacketFromUpperLayer:vector(packetBytes)  ETV
attr interpolationmode  none
attr source  receivedPacketFromUpperLayer
vector 174  CAIN.ueD2DTx[2].nic.pdcpRrc  sentPacketToLowerLayer:vector(packetBytes)  ETV
attr interpolationmode  none
attr source  sentPacketToLowerLayer
vector 175  CAIN.ueD2DTx[2].nic.mac  receivedPacketFromUpperLayer:vector(packetBytes)  ETV
attr interpolationmode  none
attr source  receivedPacketFromUpperLayer
vector 162  CAIN.ueD2DTx[1].nic.phy  averageCqiDlvect:vector  ETV
attr source  averageCqiDlvect
attr title  "Average Cqi reported in DL, vector"
attr unit  cqi
vector 150  CAIN.ueD2DTx[1].nic.mac  sentPacketToUpperLayer:vector(packetBytes)  ETV
attr interpolationmode  none
attr source  sentPacketToUpperLayer
vector 145  CAIN.ueD2DTx[1].nic.pdcpRrc  receivedPacketFromLowerLayer:vector(packetBytes)  ETV
attr interpolationmode  none
attr source  receivedPacketFromLowerLayer
vector 146  CAIN.ueD2DTx[1].nic.pdcpRrc  sentPacketToUpperLayer:vector(packetBytes)  ETV
attr interpolationmode  none
attr source  sentPacketToUpperLayer
vector 135  CAIN.ueD2DTx[0].nic.phy  averageCqiDlvect:vector  ETV
attr source  averageCqiDlvect
attr title  "Average Cqi reported in DL, vector"
attr unit  cqi
vector 360  CAIN.ueD2DTx[4].tcp  tcpRcvQueueBytes  ETV
vector 347  CAIN.ueD2DTx[4].tcp  "advertised window"  ETV
vector 346  CAIN.ueD2DTx[4].tcp  "receive window"  ETV
vector 349  CAIN.ueD2DTx[4].tcp  "sent ack"  ETV
vector 225  CAIN.ueD2DTx[4].nic.pdcpRrc  receivedPacketFromUpperLayer:vector(packetBytes)  ETV
attr interpolationmode  none
attr source  receivedPacketFromUpperLayer
vector 228  CAIN.ueD2DTx[4].nic.pdcpRrc  sentPacketToLowerLayer:vector(packetBytes)  ETV
attr interpolationmode  none
attr source  sentPacketToLowerLayer
vector 229  CAIN.ueD2DTx[4].nic.mac  receivedPacketFromUpperLayer:vector(packetBytes)  ETV
attr interpolationmode  none
attr source  receivedPacketFromUpperLayer
vector 118  CAIN.ueD2DTx[0].nic.pdcpRrc  receivedPacketFromLowerLayer:vector(packetBytes)  ETV
attr interpolationmode  none
attr source  receivedPacketFromLowerLayer
vector 119  CAIN.ueD2DTx[0].nic.pdcpRrc  sentPacketToUpperLayer:vector(packetBytes)  ETV
attr interpolationmode  none
attr source  sentPacketToUpperLayer
vector 231  CAIN.ueD2DTx[4].nic.mac  sentPacketToUpperLayer:vector(packetBytes)  ETV
attr interpolationmode  none
attr source  sentPacketToUpperLayer
8	17369 8 0 0 0 0 1 0 0 0 0
9	17377 8 0 0 0 0 1 0 0 0 0
24	17385 9 0 0 0 0 1 0 0 0 0
25	17394 9 0 0 0 0 1 0 0 0 0
35	17403 9 0 0 0 0 1 0 0 0 0
36	17412 9 0 0 0 0 1 0 0 0 0
56	17421 9 0 0 0 0 1 0 0 0 0
57	17430 9 0 0 0 0 1 0 0 0 0
67	17439 9 0 0 0 0 1 0 0 0 0
68	17448 9 0 0 0 0 1 0 0 0 0
80	17457 213 2074 283845 0.07 9.108 12 44 44 528 23232
81	17670 213 2069 283840 0.07 9.108 12 45 45 540 24300
82	17883 213 2069 283840 0.07 9.108 12 44 44 528 23232
83	18096 213 2074 283845 0.07 9.108 12 45 45 540 24300
84	18309 429 2077 283890 0.07 9.109 24 45 47 1104 50808
85	18738 393948 60 311477 0.002 9.998 22433 0 0 0 0
86	412686 450 2065 283886 0.07 9.109 26 0 47 568 26172
87	413136 248775 174 311434 0.012 9.998 14101 0 0 0 0
88	661911 216 2103 283886 0.071 9.109 12 26 26 312 8112
89	662127 249931 290 311477 0.016 9.998 12060 1 12060 72727830 584755995810
90	912058 164837 358 311477 0.018 9.998 8038 1 8038 32308741 173142543019
91	1076895 79008 290 311401 0.016 9.996 4022 85 424 642656 103180144
92	1155903 157906 358 311477 0.018 9.998 8038 149 224 1534086 300883546
93	1313809 70967 290 311401 0.016 9.996 4022 1 3 12022 35980
96	1384776 206423 174 311477 0.012 9.998 10050 1 10050 50506275 338408877925
97	1591199 187390 174 311477 0.012 9.998 10050 44 223 617591 42072883
99	1778589 251 1944 283723 0.067 9.105 14 10 15 186 2546
104	1778840 10 0 0 0 0 1 0 0 0 0
105	1778850 10 0 0 0 0 1 0 0 0 0
117	1778860 84 1695 281890 0.061990650576 9.061990650576 3 44 44 132 5808
118	1778944 108 3426 284015 0.1 9.113 6 45 45 270 12150
119	1779052 108 3426 284015 0.1 9.113 6 44 44 264 11616
120	1779160 84 1695 281890 0.061990650576 9.061990650576 3 45 45 135 6075
121	1779244 141 1698 282076 0.061990650576 9.066 6 45 47 276 12702
122	1779385 223856 241 311519 0.014 10 12067 0 0 0 0
123	2003241 162 1877 284011 0.066 9.113 9 0 47 282 13254
124	2003403 223853 241 311519 0.014 10 12067 0 0 0 0
133	2227256 260757 241 311519 0.014 10 12055 1 12055 72667540 584029018980
134	2488013 241723 241 311519 0.014 10 12055 85 224 1571132 235519168
135	2729736 111 3337 283938 0.097 9.11 6 15 15 90 1350
138	2729847 10 0 0 0 0 1 1 1 1 1
144	2729857 83 149 280309 0.010449835914 9.010449835914 3 44 44 132 5808
145	2729940 57 3291 283138 0.096 9.091 3 45 45 135 6075
146	2729997 57 3291 283138 0.096 9.091 3 44 44 132 5808
147	2730054 83 149 280309 0.010449835914 9.010449835914 3 45 45 135 6075
148	2730137 83 152 280312 0.010449835914 9.010449835914 3 45 45 135 6075
149	2730220 261276 195 311525 0.013 10 14074 0 0 0 0
150	2991496 57 3286 283133 0.096 9.091 3 47 47 141 6627
151	2991553 261327 155 311525 0.011 10 14077 0 0 0 0
160	3252880 261146 195 311525 0.013 10 12073 1 12073 72884701 586648958349
161	3514026 236025 195 311525 0.013 10 12073 0 154 914307 138520445
162	3750051 57 3162 283001 0.093 9.088 3 15 15 45 675
165	3750108 10 0 0 0 0 1 1 1 1 1
171	3750118 84 2792 282946 0.086053438967 9.086053438967 3 44 44 132 5808
172	3750202 57 2251 282446 0.075 9.075 3 45 45 135 6075
173	3750259 57 2251 282446 0.075 9.075 3 44 44 132 5808
174	3750316 84 2792 282946 0.086053438967 9.086053438967 3 45 45 135 6075
175	3750400 141 2795 283146 0.086053438967 9.091 6 45 47 276 12702
176	3750541 224023 204 311534 0.013 10 12076 0 0 0 0
177	3974564 111 2247 283142 0.075 9.091 6 0 47 141 6627
178	3974675 224026 204 311534 0.013 10 12076 0 0 0 0
187	4198701 261026 204 311534 0.013 10 12067 1 12067 72812278 585774776510
188	4459727 235935 204 311534 0.013 10 12067 0 223 1012210 169777292
189	4695662 57 2154 282349 0.072 9.072 3 15 15 45 675
192	4695719 10 0 0 0 0 1 1 1 1 1
198	4695729 84 2334 282528 0.077833853802 9.077833853802 3 44 44 132 5808
201	4695813 84 2334 282528 0.077833853802 9.077833853802 3 45 45 135 6075
202	4695897 176 2337 282719 0.077833853802 9.082 8 4 47 280 12366
203	4696073 223827 232 311528 0.014 10 12065 0 0 0 0
204	4919900 89 2521 282715 0.082 9.082 5 0 0 0 0
205	4919989 223827 232 311528 0.014 10 12065 0 0 0 0
214	5143816 260763 232 311528 0.014 10 12055 1 12055 72667540 584029018980
215	5404579 241729 232 311528 0.014 10 12055 44 224 1391604 224308310
219	5646308 10 0 0 0 0 1 1 1 1 1
225	5646318 84 3412 283489 0.099814136955 9.099814136955 3 44 44 132 5808
228	5646402 84 3412 283489 0.099814136955 9.099814136955 3 45 45 135 6075
229	5646486 141 3415 283663 0.099814136955 9.104 6 45 47 276 12702
230	5646627 72850 261 311531 0.015 10 4027 0 0 0 0
231	5719477 54 3582 283659 0.104 9.104 3 0 0 0 0
232	5719531 72844 261 311531 0.015 10 4027 0 0 0 0
241	5792375 83698 261 311531 0.015 10 4021 1 4021 8086231 21679185311
242	5876073 80781 261 311531 0.015 10 4021 85 169 641709 102693563
246	5956854 10 0 0 0 0 1 1 1 1 1
250	5956864 89 146 280306 0.010449835914 9.010449835914 3 7504 7504 22512 168930048
251	5956953 89 146 280306 0.010449835914 9.010449835914 3 7504 7504 22512 168930048
253	5957042 80 146 280306 0.010449835914 9.010449835914 3 0 0 0 0
264	5957122 80 146 280306 0.010449835914 9.010449835914 3 0 0 0 0
274	5957202 90 1692 281887 0.061990650576 9.061990650576 3 7504 7504 22512 168930048
275	5957292 90 1692 281887 0.061990650576 9.061990650576 3 7504 7504 22512 168930048
277	5957382 81 1692 281887 0.061990650576 9.061990650576 3 0 0 0 0
288	5957463 81 1692 281887 0.061990650576 9.061990650576 3 0 0 0 0
298	5957544 90 2331 282525 0.077833853802 9.077833853802 3 7504 7504 22512 168930048
299	5957634 90 2331 282525 0.077833853802 9.077833853802 3 7504 7504 22512 168930048
301	5957724 81 2331 282525 0.077833853802 9.077833853802 3 0 0 0 0
312	5957805 81 2331 282525 0.077833853802 9.077833853802 3 0 0 0 0
322	5957886 90 2789 282943 0.086053438967 9.086053438967 3 7504 7504 22512 168930048
323	5957976 90 2789 282943 0.086053438967 9.086053438967 3 7504 7504 22512 168930048
325	5958066 81 2789 282943 0.086053438967 9.086053438967 3 0 0 0 0
336	5958147 81 2789 282943 0.086053438967 9.086053438967 3 0 0 0 0
346	5958228 90 3409 283486 0.099814136955 9.099814136955 3 7504 7504 22512 168930048
347	5958318 90 3409 283486 0.099814136955 9.099814136955 3 7504 7504 22512 168930048
349	5958408 81 3409 283486 0.099814136955 9.099814136955 3 0 0 0 0
360	5958489 81 3409 283486 0.099814136955 9.099814136955 3 0 0 0 0
