file 3963011 1580829037                                         
version 2
run CAIN-191-20200204-12:09:48-10778
attr configname CAIN
attr datetime 20200204-12:09:48
attr dist 220
attr experiment CAIN
attr inifile omnetpp.ini
attr iterationvars "$dist=220, $mob=\"./movements/RWPRPGM-0.5.movements\""
attr iterationvars2 "$dist=220, $mob=\"./movements/RWPRPGM-0.5.movements\", $repetition=16"
attr measurement "$dist=220, $mob=\"./movements/RWPRPGM-0.5.movements\""
attr mob "\"./movements/RWPRPGM-0.5.movements\""
attr network lte.simulations.networks.CAIN
attr processid 10778
attr repetition 16
attr replication #16
attr resultdir results
attr runnumber 191
attr seedset 16
param **.**.amcMode "\"AUTO\""
param **.amcMode "\"D2D\""
param **.cainNetwork true
param **.channelControl.alpha 1.0
param **.channelControl.carrierFrequency 2100e+6Hz
param **.channelControl.pMax 10W
param **.d2dCqi 7
param **.deployer.numRbDl 50
param **.deployer.numRbUl 50
param **.distThresh "${dist=200..260 step 10}"
param **.fbDelay 1
param **.feedbackComputation "xmldoc(\"config_channel.xml\")"
param **.mobility.constraintAreaMaxX 1000m
param **.mobility.constraintAreaMaxY 1000m
param **.mobility.constraintAreaMaxZ 0m
param **.mobility.constraintAreaMinX 0m
param **.mobility.constraintAreaMinY 0m
param **.mobility.constraintAreaMinZ 0m
param **.nic.phy.channelModel "xmldoc(\"config_channel.xml\")"
param **.numBands 50
param **.pwrThresh -10
param **.qtdThresh 3
param **.rbAllocationType "\"localized\""
param **.routingRecorder.enabled false
param **.tcpApp[*].tClose -1s
param **.ueD2DTx[*].mobility.changeAngleBy "normal(0deg, 30deg)"
param **.ueD2DTx[*].mobility.changeInterval "normal(5s, 0.1s)"
param **.ueD2DTx[*].mobility.nodeId -1
param **.ueD2DTx[*].mobility.speed "normal(2mps, 0.01mps)"
param **.ueD2DTx[*].mobility.traceFile "${mob=\"./movements/RWPRPGM-0.0.movements\",\"./movements/RWPRPGM-0.5.movements\"}"
param **.ueD2DTx[*].mobilityType "\"BonnMotionMobility\""
param **.usePreconfiguredTxParams false
param *.eNodeB.d2dCapable false
param *.eNodeB.mobility.initFromDisplayString false
param *.eNodeB.mobility.initialX 300m
param *.eNodeB.mobility.initialY 300m
param *.eNodeB.nic.phy.enableD2DCqiReporting true
param *.eNodeB.txPower 19952.62315mw
param *.numUeCell 0
param *.numUeD2DRx 1
param *.numUeD2DTx 1
param *.ue*.macCellId 1
param *.ue*.masterId 1
param *.ue*.mobility.initFromDisplayString false
param *.ue*[0].macCellId 1
param *.ue*[0].masterId 1
param *.ue*[0].mobility.initFromDisplayString false
param *.ueD2D*.numTcpApps 1
param *.ueD2D*[*].d2dCapable true
param *.ueD2D*[0].d2dCapable false
param *.ueD2D*[0].numTcpApps 1
param *.ueD2DRx[0].mobility.initialX 310m
param *.ueD2DRx[0].mobility.initialY 350m
param *.ueD2DRx[0].tcpApp[*].localPort 1000
param *.ueD2DRx[0].tcpApp[*].typename "\"TCPSinkApp\""
param *.ueD2DTx*.tcpApp[*].connectAddress "\"ueD2DTx[0]\""
param *.ueD2DTx*.tcpApp[*].localAddress "\"ueD2DTx\""
param *.ueD2DTx*.tcpApp[*].localPort 1000
param *.ueD2DTx*.tcpApp[*].sendBytes 1GiB
param *.ueD2DTx*.tcpApp[*].typename "\"TCPSessionApp\""
param *.ueD2DTx*.tcpApp[0].active true
param *.ueD2DTx*.tcpApp[0].connectPort 1000
param *.ueD2DTx*.tcpApp[0].tOpen uniform(0.010s,0.1s)
param *.ueD2DTx*.tcpApp[0].tSend uniform(0.15s,0.5s)
param *.ueD2DTx[0].mobility.initialX 290m
param *.ueD2DTx[0].mobility.initialY 350m
param *.ueD2DTx[0].nic.d2dPeerAddresses "\"ueD2DTx[1]\""
param *.ueD2DTx[0].tcpApp[*].localPort 1000
param *.ueD2DTx[0].tcpApp[*].sendBytes 1GiB
param *.ueD2DTx[0].tcpApp[*].typename "\"TCPSessionApp\""
param *.ueD2DTx[0].tcpApp[0].active true
param *.ueD2DTx[0].tcpApp[0].connectAddress "\"ueD2DRx[0]\""
param *.ueD2DTx[0].tcpApp[0].connectPort 1000
param *.ueD2DTx[0].tcpApp[0].localAddress "\"ueD2DTx[0]\""
param *.ueD2DTx[0].tcpApp[0].tOpen uniform(0.010s,0.1s)
param *.ueD2DTx[0].tcpApp[0].tSend uniform(0.15s,0.5s)
param *.ueD2DTx[1].nic.d2dPeerAddresses "\"ueD2DTx[0]\""

vector 8  CAIN.server.ppp[0].queue  queueLength:vector  ETV
attr interpolationmode  sample-hold
attr title  "queue length, vector"
vector 9  CAIN.server.ppp[0].ppp  txState:vector  ETV
attr interpolationmode  sample-hold
attr title  "tx state, vector"
vector 24  CAIN.router.ppp[0].queue  queueLength:vector  ETV
attr interpolationmode  sample-hold
attr title  "queue length, vector"
vector 25  CAIN.router.ppp[0].ppp  txState:vector  ETV
attr interpolationmode  sample-hold
attr title  "tx state, vector"
vector 35  CAIN.router.ppp[1].queue  queueLength:vector  ETV
attr interpolationmode  sample-hold
attr title  "queue length, vector"
vector 36  CAIN.router.ppp[1].ppp  txState:vector  ETV
attr interpolationmode  sample-hold
attr title  "tx state, vector"
vector 56  CAIN.pgw.ppp[0].queue  queueLength:vector  ETV
attr interpolationmode  sample-hold
attr title  "queue length, vector"
vector 57  CAIN.pgw.ppp[0].ppp  txState:vector  ETV
attr interpolationmode  sample-hold
attr title  "tx state, vector"
vector 67  CAIN.pgw.pppInterface.queue  queueLength:vector  ETV
attr interpolationmode  sample-hold
attr title  "queue length, vector"
vector 68  CAIN.pgw.pppInterface.ppp  txState:vector  ETV
attr interpolationmode  sample-hold
attr title  "tx state, vector"
vector 104  CAIN.eNodeB.pppIf.queue  queueLength:vector  ETV
attr interpolationmode  sample-hold
attr title  "queue length, vector"
vector 105  CAIN.eNodeB.pppIf.ppp  txState:vector  ETV
attr interpolationmode  sample-hold
attr title  "tx state, vector"
vector 138  CAIN.ueD2DTx[0].nic.phy  servingCell:vector  ETV
attr source  servingCell
attr title  "ID of the serving eNodeB for the UE, vector"
attr unit  ""
vector 165  CAIN.ueD2DTx[1].nic.phy  servingCell:vector  ETV
attr source  servingCell
attr title  "ID of the serving eNodeB for the UE, vector"
attr unit  ""
vector 192  CAIN.ueD2DTx[2].nic.phy  servingCell:vector  ETV
attr source  servingCell
attr title  "ID of the serving eNodeB for the UE, vector"
attr unit  ""
vector 219  CAIN.ueD2DTx[3].nic.phy  servingCell:vector  ETV
attr source  servingCell
attr title  "ID of the serving eNodeB for the UE, vector"
attr unit  ""
vector 246  CAIN.ueD2DTx[4].nic.phy  servingCell:vector  ETV
attr source  servingCell
attr title  "ID of the serving eNodeB for the UE, vector"
attr unit  ""
vector 85  CAIN.eNodeB.nic.mac  receivedPacketFromLowerLayer:vector(packetBytes)  ETV
attr interpolationmode  none
attr source  receivedPacketFromLowerLayer
vector 264  CAIN.ueD2DTx[2].tcp  tcpRcvQueueBytes  ETV
vector 251  CAIN.ueD2DTx[2].tcp  "advertised window"  ETV
vector 250  CAIN.ueD2DTx[2].tcp  "receive window"  ETV
vector 253  CAIN.ueD2DTx[2].tcp  "sent ack"  ETV
vector 171  CAIN.ueD2DTx[2].nic.pdcpRrc  receivedPacketFromUpperLayer:vector(packetBytes)  ETV
attr interpolationmode  none
attr source  receivedPacketFromUpperLayer
vector 174  CAIN.ueD2DTx[2].nic.pdcpRrc  sentPacketToLowerLayer:vector(packetBytes)  ETV
attr interpolationmode  none
attr source  sentPacketToLowerLayer
vector 175  CAIN.ueD2DTx[2].nic.mac  receivedPacketFromUpperLayer:vector(packetBytes)  ETV
attr interpolationmode  none
attr source  receivedPacketFromUpperLayer
vector 178  CAIN.ueD2DTx[2].nic.mac  sentPacketToLowerLayer:vector(packetBytes)  ETV
attr interpolationmode  none
attr source  sentPacketToLowerLayer
vector 96  CAIN.eNodeB.nic.mac  racpkt:vector  ETV
attr interpolationmode  none
attr title  "eNB received racpkt message, vector"
vector 97  CAIN.eNodeB.nic.mac  racDistanceSignal:vector  ETV
attr interpolationmode  none
attr title  "Rac distance to enb, vector"
vector 87  CAIN.eNodeB.nic.mac  sentPacketToLowerLayer:vector(packetBytes)  ETV
attr interpolationmode  none
attr source  sentPacketToLowerLayer
vector 149  CAIN.ueD2DTx[1].nic.mac  receivedPacketFromLowerLayer:vector(packetBytes)  ETV
attr interpolationmode  none
attr source  receivedPacketFromLowerLayer
vector 160  CAIN.ueD2DTx[1].nic.mac  racpkt:vector  ETV
attr interpolationmode  none
attr title  "eNB received racpkt message, vector"
vector 161  CAIN.ueD2DTx[1].nic.mac  racDistanceSignal:vector  ETV
attr interpolationmode  none
attr title  "Rac distance to enb, vector"
vector 151  CAIN.ueD2DTx[1].nic.mac  sentPacketToLowerLayer:vector(packetBytes)  ETV
attr interpolationmode  none
attr source  sentPacketToLowerLayer
vector 176  CAIN.ueD2DTx[2].nic.mac  receivedPacketFromLowerLayer:vector(packetBytes)  ETV
attr interpolationmode  none
attr source  receivedPacketFromLowerLayer
vector 187  CAIN.ueD2DTx[2].nic.mac  racpkt:vector  ETV
attr interpolationmode  none
attr title  "eNB received racpkt message, vector"
vector 188  CAIN.ueD2DTx[2].nic.mac  racDistanceSignal:vector  ETV
attr interpolationmode  none
attr title  "Rac distance to enb, vector"
vector 203  CAIN.ueD2DTx[3].nic.mac  receivedPacketFromLowerLayer:vector(packetBytes)  ETV
attr interpolationmode  none
attr source  receivedPacketFromLowerLayer
vector 214  CAIN.ueD2DTx[3].nic.mac  racpkt:vector  ETV
attr interpolationmode  none
attr title  "eNB received racpkt message, vector"
vector 215  CAIN.ueD2DTx[3].nic.mac  racDistanceSignal:vector  ETV
attr interpolationmode  none
attr title  "Rac distance to enb, vector"
vector 205  CAIN.ueD2DTx[3].nic.mac  sentPacketToLowerLayer:vector(packetBytes)  ETV
attr interpolationmode  none
attr source  sentPacketToLowerLayer
vector 122  CAIN.ueD2DTx[0].nic.mac  receivedPacketFromLowerLayer:vector(packetBytes)  ETV
attr interpolationmode  none
attr source  receivedPacketFromLowerLayer
vector 133  CAIN.ueD2DTx[0].nic.mac  racpkt:vector  ETV
attr interpolationmode  none
attr title  "eNB received racpkt message, vector"
vector 134  CAIN.ueD2DTx[0].nic.mac  racDistanceSignal:vector  ETV
attr interpolationmode  none
attr title  "Rac distance to enb, vector"
vector 124  CAIN.ueD2DTx[0].nic.mac  sentPacketToLowerLayer:vector(packetBytes)  ETV
attr interpolationmode  none
attr source  sentPacketToLowerLayer
vector 230  CAIN.ueD2DTx[4].nic.mac  receivedPacketFromLowerLayer:vector(packetBytes)  ETV
attr interpolationmode  none
attr source  receivedPacketFromLowerLayer
vector 241  CAIN.ueD2DTx[4].nic.mac  racpkt:vector  ETV
attr interpolationmode  none
attr title  "eNB received racpkt message, vector"
vector 242  CAIN.ueD2DTx[4].nic.mac  racDistanceSignal:vector  ETV
attr interpolationmode  none
attr title  "Rac distance to enb, vector"
vector 232  CAIN.ueD2DTx[4].nic.mac  sentPacketToLowerLayer:vector(packetBytes)  ETV
attr interpolationmode  none
attr source  sentPacketToLowerLayer
vector 177  CAIN.ueD2DTx[2].nic.mac  sentPacketToUpperLayer:vector(packetBytes)  ETV
attr interpolationmode  none
attr source  sentPacketToUpperLayer
vector 99  CAIN.eNodeB.nic.phy  averageCqiUlvect:vector  ETV
attr source  averageCqiUlvect
attr title  "Average Cqi reported in UL, vector"
attr unit  cqi
vector 93  CAIN.eNodeB.nic.mac  ServedDevs:vector  ETV
attr interpolationmode  none
attr title  "# of devices served on cain forwarding, vector"
vector 91  CAIN.eNodeB.nic.mac  DistanceSignal:vector  ETV
attr interpolationmode  none
attr title  "Distance to enb, vector"
vector 89  CAIN.eNodeB.nic.mac  CainMessage:vector  ETV
attr interpolationmode  none
attr title  "eNB received CAIN message, vector"
vector 86  CAIN.eNodeB.nic.mac  sentPacketToUpperLayer:vector(packetBytes)  ETV
attr interpolationmode  none
attr source  sentPacketToUpperLayer
vector 81  CAIN.eNodeB.nic.pdcpRrc  receivedPacketFromLowerLayer:vector(packetBytes)  ETV
attr interpolationmode  none
attr source  receivedPacketFromLowerLayer
vector 82  CAIN.eNodeB.nic.pdcpRrc  sentPacketToUpperLayer:vector(packetBytes)  ETV
attr interpolationmode  none
attr source  sentPacketToUpperLayer
vector 80  CAIN.eNodeB.nic.pdcpRrc  receivedPacketFromUpperLayer:vector(packetBytes)  ETV
attr interpolationmode  none
attr source  receivedPacketFromUpperLayer
vector 83  CAIN.eNodeB.nic.pdcpRrc  sentPacketToLowerLayer:vector(packetBytes)  ETV
attr interpolationmode  none
attr source  sentPacketToLowerLayer
vector 84  CAIN.eNodeB.nic.mac  receivedPacketFromUpperLayer:vector(packetBytes)  ETV
attr interpolationmode  none
attr source  receivedPacketFromUpperLayer
vector 88  CAIN.eNodeB.nic.mac  measuredItbs:vector  ETV
attr source  measuredItbs
attr title  "TBS index, vector"
attr unit  ""
vector 135  CAIN.ueD2DTx[0].nic.phy  averageCqiDlvect:vector  ETV
attr source  averageCqiDlvect
attr title  "Average Cqi reported in DL, vector"
attr unit  cqi
vector 123  CAIN.ueD2DTx[0].nic.mac  sentPacketToUpperLayer:vector(packetBytes)  ETV
attr interpolationmode  none
attr source  sentPacketToUpperLayer
vector 118  CAIN.ueD2DTx[0].nic.pdcpRrc  receivedPacketFromLowerLayer:vector(packetBytes)  ETV
attr interpolationmode  none
attr source  receivedPacketFromLowerLayer
vector 119  CAIN.ueD2DTx[0].nic.pdcpRrc  sentPacketToUpperLayer:vector(packetBytes)  ETV
attr interpolationmode  none
attr source  sentPacketToUpperLayer
vector 288  CAIN.ueD2DTx[4].tcp  tcpRcvQueueBytes  ETV
vector 275  CAIN.ueD2DTx[4].tcp  "advertised window"  ETV
vector 274  CAIN.ueD2DTx[4].tcp  "receive window"  ETV
vector 277  CAIN.ueD2DTx[4].tcp  "sent ack"  ETV
vector 225  CAIN.ueD2DTx[4].nic.pdcpRrc  receivedPacketFromUpperLayer:vector(packetBytes)  ETV
attr interpolationmode  none
attr source  receivedPacketFromUpperLayer
vector 228  CAIN.ueD2DTx[4].nic.pdcpRrc  sentPacketToLowerLayer:vector(packetBytes)  ETV
attr interpolationmode  none
attr source  sentPacketToLowerLayer
vector 229  CAIN.ueD2DTx[4].nic.mac  receivedPacketFromUpperLayer:vector(packetBytes)  ETV
attr interpolationmode  none
attr source  receivedPacketFromUpperLayer
vector 312  CAIN.ueD2DTx[3].tcp  tcpRcvQueueBytes  ETV
vector 299  CAIN.ueD2DTx[3].tcp  "advertised window"  ETV
vector 298  CAIN.ueD2DTx[3].tcp  "receive window"  ETV
vector 301  CAIN.ueD2DTx[3].tcp  "sent ack"  ETV
vector 198  CAIN.ueD2DTx[3].nic.pdcpRrc  receivedPacketFromUpperLayer:vector(packetBytes)  ETV
attr interpolationmode  none
attr source  receivedPacketFromUpperLayer
vector 201  CAIN.ueD2DTx[3].nic.pdcpRrc  sentPacketToLowerLayer:vector(packetBytes)  ETV
attr interpolationmode  none
attr source  sentPacketToLowerLayer
vector 202  CAIN.ueD2DTx[3].nic.mac  receivedPacketFromUpperLayer:vector(packetBytes)  ETV
attr interpolationmode  none
attr source  receivedPacketFromUpperLayer
vector 231  CAIN.ueD2DTx[4].nic.mac  sentPacketToUpperLayer:vector(packetBytes)  ETV
attr interpolationmode  none
attr source  sentPacketToUpperLayer
vector 204  CAIN.ueD2DTx[3].nic.mac  sentPacketToUpperLayer:vector(packetBytes)  ETV
attr interpolationmode  none
attr source  sentPacketToUpperLayer
vector 189  CAIN.ueD2DTx[2].nic.phy  averageCqiDlvect:vector  ETV
attr source  averageCqiDlvect
attr title  "Average Cqi reported in DL, vector"
attr unit  cqi
vector 336  CAIN.ueD2DTx[0].tcp  tcpRcvQueueBytes  ETV
vector 323  CAIN.ueD2DTx[0].tcp  "advertised window"  ETV
vector 322  CAIN.ueD2DTx[0].tcp  "receive window"  ETV
vector 325  CAIN.ueD2DTx[0].tcp  "sent ack"  ETV
vector 117  CAIN.ueD2DTx[0].nic.pdcpRrc  receivedPacketFromUpperLayer:vector(packetBytes)  ETV
attr interpolationmode  none
attr source  receivedPacketFromUpperLayer
vector 120  CAIN.ueD2DTx[0].nic.pdcpRrc  sentPacketToLowerLayer:vector(packetBytes)  ETV
attr interpolationmode  none
attr source  sentPacketToLowerLayer
vector 121  CAIN.ueD2DTx[0].nic.mac  receivedPacketFromUpperLayer:vector(packetBytes)  ETV
attr interpolationmode  none
attr source  receivedPacketFromUpperLayer
vector 172  CAIN.ueD2DTx[2].nic.pdcpRrc  receivedPacketFromLowerLayer:vector(packetBytes)  ETV
attr interpolationmode  none
attr source  receivedPacketFromLowerLayer
vector 173  CAIN.ueD2DTx[2].nic.pdcpRrc  sentPacketToUpperLayer:vector(packetBytes)  ETV
attr interpolationmode  none
attr source  sentPacketToUpperLayer
vector 360  CAIN.ueD2DTx[1].tcp  tcpRcvQueueBytes  ETV
vector 347  CAIN.ueD2DTx[1].tcp  "advertised window"  ETV
vector 346  CAIN.ueD2DTx[1].tcp  "receive window"  ETV
vector 349  CAIN.ueD2DTx[1].tcp  "sent ack"  ETV
vector 144  CAIN.ueD2DTx[1].nic.pdcpRrc  receivedPacketFromUpperLayer:vector(packetBytes)  ETV
attr interpolationmode  none
attr source  receivedPacketFromUpperLayer
vector 147  CAIN.ueD2DTx[1].nic.pdcpRrc  sentPacketToLowerLayer:vector(packetBytes)  ETV
attr interpolationmode  none
attr source  sentPacketToLowerLayer
vector 148  CAIN.ueD2DTx[1].nic.mac  receivedPacketFromUpperLayer:vector(packetBytes)  ETV
attr interpolationmode  none
attr source  receivedPacketFromUpperLayer
vector 92  CAIN.eNodeB.nic.mac  HopDistanceSignal:vector  ETV
attr interpolationmode  none
attr title  "Distance to enb with hop forwarding, vector"
vector 90  CAIN.eNodeB.nic.mac  CainHopMessage:vector  ETV
attr interpolationmode  none
attr title  "eNB received CAIN hop message, vector"
8	16633 8 0 0 0 0 1 0 0 0 0
9	16641 8 0 0 0 0 1 0 0 0 0
24	16649 9 0 0 0 0 1 0 0 0 0
25	16658 9 0 0 0 0 1 0 0 0 0
35	16667 9 0 0 0 0 1 0 0 0 0
36	16676 9 0 0 0 0 1 0 0 0 0
56	16685 9 0 0 0 0 1 0 0 0 0
57	16694 9 0 0 0 0 1 0 0 0 0
67	16703 9 0 0 0 0 1 0 0 0 0
68	16712 9 0 0 0 0 1 0 0 0 0
80	16721 213 496 223451 0.036 9.068 12 44 44 528 23232
81	16934 213 491 223446 0.036 9.068 12 45 45 540 24300
82	17147 213 491 223446 0.036 9.068 12 44 44 528 23232
83	17360 213 496 223451 0.036 9.068 12 45 45 540 24300
84	17573 426 499 223487 0.036 9.069 24 45 47 1104 50808
85	17999 389835 60 247840 0.002 9.998 22336 0 0 0 0
86	407834 414 487 223483 0.036 9.069 24 0 47 564 26508
87	408248 134406 348 247807 0.029 9.998 7622 0 0 0 0
88	542654 213 511 223483 0.037 9.069 12 26 26 312 8112
89	542867 246928 457 247840 0.033 9.998 11978 1 11978 71742231 572909542689
90	789795 16005 1152 247840 0.067 9.998 806 1 806 325221 174860491
91	805800 217965 457 247785 0.033 9.996 11172 168 424 3770262 1383865228
92	1023765 16113 1152 247840 0.067 9.998 806 152 222 123458 18934344
93	1039878 195621 457 247785 0.033 9.996 11172 1 4 44666 178606
96	1235499 56873 348 247840 0.029 9.998 2805 1 2805 3935415 7360537855
97	1292372 53180 348 247840 0.029 9.998 2805 44 223 225556 26740538
99	1345552 213 454 223351 0.033 9.065 12 15 15 180 2700
104	1345765 10 0 0 0 0 1 0 0 0 0
105	1345775 10 0 0 0 0 1 0 0 0 0
117	1345785 83 968 223122 0.059029101792 9.059029101792 3 44 44 132 5808
118	1345868 56 563 222411 0.041 9.041 3 45 45 135 6075
119	1345924 56 563 222411 0.041 9.041 3 44 44 132 5808
120	1345980 83 968 223122 0.059029101792 9.059029101792 3 45 45 135 6075
121	1346063 140 971 223295 0.059029101792 9.064 6 45 47 276 12702
122	1346203 104440 392 247885 0.031 10 5618 0 0 0 0
123	1450643 110 559 223291 0.041 9.064 6 0 47 141 6627
124	1450753 104493 392 247885 0.031 10 5621 0 0 0 0
133	1555246 119999 392 247885 0.031 10 5609 1 5609 15733245 58837091885
134	1675245 109889 392 247885 0.031 10 5609 0 224 513526 90848312
135	1785134 56 542 222337 0.038 9.038 3 15 15 45 675
138	1785190 10 0 0 0 0 1 1 1 1 1
144	1785200 84 1115 223387 0.065045539332 9.065045539332 3 44 44 132 5808
147	1785284 84 1115 223387 0.065045539332 9.065045539332 3 45 45 135 6075
148	1785368 84 1118 223390 0.065045539332 9.065045539332 3 45 45 135 6075
149	1785452 167202 365 247891 0.03 10 9194 0 0 0 0
151	1952654 226136 365 247891 0.03 10 12393 0 0 0 0
160	2178790 150865 365 247891 0.03 10 7207 1 7207 25974028 124805204540
161	2329655 140749 365 247891 0.03 10 7207 0 224 948588 178304252
165	2470404 10 0 0 0 0 1 1 1 1 1
171	2470414 80 328 221953 0.02749725908 9.02749725908 3 44 44 132 5808
172	2470494 170 999 223595 0.061 9.073 9 45 45 405 18225
173	2470664 170 999 223595 0.061 9.073 9 44 44 396 17424
174	2470834 80 328 221953 0.02749725908 9.02749725908 3 45 45 135 6075
175	2470914 136 331 222114 0.02749725908 9.032 6 45 47 276 12702
176	2471050 130179 370 247897 0.03 10 7197 0 0 0 0
177	2601229 223 409 223591 0.032 9.073 12 0 47 423 19881
178	2601452 188831 335 247897 0.028 10 10380 0 0 0 0
187	2790283 150358 370 247897 0.03 10 7182 1 7182 25794153 123511002615
188	2940641 140293 370 247897 0.03 10 7182 0 224 946164 177883988
189	3080934 163 948 223525 0.058 9.07 9 15 15 135 2025
192	3081097 10 0 0 0 0 1 1 1 1 1
198	3081107 83 677 222652 0.049565857213 9.049565857213 3 44 44 132 5808
201	3081190 83 677 222652 0.049565857213 9.049565857213 3 45 45 135 6075
202	3081273 139 680 222882 0.049565857213 9.054 6 45 47 276 12702
203	3081412 88881 389 247882 0.031 10 4798 0 0 0 0
204	3170293 53 833 222878 0.054 9.054 3 0 0 0 0
205	3170346 88878 389 247882 0.031 10 4798 0 0 0 0
214	3259224 102044 389 247882 0.031 10 4792 1 4792 11484028 36691469460
215	3361268 94366 389 247882 0.031 10 4792 44 224 439039 58394385
219	3455634 10 0 0 0 0 1 1 1 1 1
225	3455644 83 640 222579 0.047691773572 9.047691773572 3 44 44 132 5808
228	3455727 83 640 222579 0.047691773572 9.047691773572 3 45 45 135 6075
229	3455810 139 643 222765 0.047691773572 9.052 6 45 47 276 12702
230	3455949 119669 395 247866 0.031 9.999 6395 0 0 0 0
231	3575618 53 747 222761 0.052 9.052 3 0 0 0 0
232	3575671 119669 395 247866 0.031 9.999 6395 0 0 0 0
241	3695340 137623 395 247866 0.031 9.999 6389 1 6389 20412855 86951958015
242	3832963 128356 395 247866 0.031 9.999 6389 44 169 650725 82129829
246	3961319 10 0 0 0 0 1 1 1 1 1
250	3961329 86 325 221950 0.02749725908 9.02749725908 3 7504 7504 22512 168930048
251	3961415 86 325 221950 0.02749725908 9.02749725908 3 7504 7504 22512 168930048
253	3961501 77 325 221950 0.02749725908 9.02749725908 3 0 0 0 0
264	3961578 77 325 221950 0.02749725908 9.02749725908 3 0 0 0 0
274	3961655 89 637 222576 0.047691773572 9.047691773572 3 7504 7504 22512 168930048
275	3961744 89 637 222576 0.047691773572 9.047691773572 3 7504 7504 22512 168930048
277	3961833 80 637 222576 0.047691773572 9.047691773572 3 0 0 0 0
288	3961913 80 637 222576 0.047691773572 9.047691773572 3 0 0 0 0
298	3961993 89 674 222649 0.049565857213 9.049565857213 3 7504 7504 22512 168930048
299	3962082 89 674 222649 0.049565857213 9.049565857213 3 7504 7504 22512 168930048
301	3962171 80 674 222649 0.049565857213 9.049565857213 3 0 0 0 0
312	3962251 80 674 222649 0.049565857213 9.049565857213 3 0 0 0 0
322	3962331 89 965 223119 0.059029101792 9.059029101792 3 7504 7504 22512 168930048
323	3962420 89 965 223119 0.059029101792 9.059029101792 3 7504 7504 22512 168930048
325	3962509 80 965 223119 0.059029101792 9.059029101792 3 0 0 0 0
336	3962589 80 965 223119 0.059029101792 9.059029101792 3 0 0 0 0
346	3962669 90 1112 223384 0.065045539332 9.065045539332 3 7504 7504 22512 168930048
347	3962759 90 1112 223384 0.065045539332 9.065045539332 3 7504 7504 22512 168930048
349	3962849 81 1112 223384 0.065045539332 9.065045539332 3 0 0 0 0
360	3962930 81 1112 223384 0.065045539332 9.065045539332 3 0 0 0 0
