file 4230487 1580765124                                         
version 2
run CAIN-194-20200203-18:24:33-851
attr configname CAIN
attr datetime 20200203-18:24:33
attr experiment CAIN
attr inifile omnetpp.ini
attr iterationvars "$0=190, $mob=\"./movements/RWP-0.0.movements\""
attr iterationvars2 "$0=190, $mob=\"./movements/RWP-0.0.movements\", $repetition=14"
attr measurement "$0=190, $mob=\"./movements/RWP-0.0.movements\""
attr mob "\"./movements/RWP-0.0.movements\""
attr network lte.simulations.networks.CAIN
attr processid 851
attr repetition 14
attr replication #14
attr resultdir results
attr runnumber 194
attr seedset 14
param **.**.amcMode "\"AUTO\""
param **.amcMode "\"D2D\""
param **.cainNetwork true
param **.channelControl.alpha 1.0
param **.channelControl.carrierFrequency 2100e+6Hz
param **.channelControl.pMax 10W
param **.d2dCqi 7
param **.deployer.numRbDl 50
param **.deployer.numRbUl 50
param **.distThresh "${170..190 step 10}"
param **.fbDelay 1
param **.feedbackComputation "xmldoc(\"config_channel.xml\")"
param **.mobility.constraintAreaMaxX 1000m
param **.mobility.constraintAreaMaxY 1000m
param **.mobility.constraintAreaMaxZ 0m
param **.mobility.constraintAreaMinX 0m
param **.mobility.constraintAreaMinY 0m
param **.mobility.constraintAreaMinZ 0m
param **.nic.phy.channelModel "xmldoc(\"config_channel.xml\")"
param **.numBands 50
param **.pwrThresh -10
param **.qtdThresh 3
param **.rbAllocationType "\"localized\""
param **.routingRecorder.enabled false
param **.tcpApp[*].tClose -1s
param **.ueD2DTx[*].mobility.changeAngleBy "normal(0deg, 30deg)"
param **.ueD2DTx[*].mobility.changeInterval "normal(5s, 0.1s)"
param **.ueD2DTx[*].mobility.nodeId -1
param **.ueD2DTx[*].mobility.speed "normal(2mps, 0.01mps)"
param **.ueD2DTx[*].mobility.traceFile "${mob=\"./movements/RWP-0.0.movements\",\"./movements/RWP-0.5.movements\",\"./movements/RPGM-0.0.movements\",\"./movements/RPGM-0.5.movements\",\"./movements/RWPRPGM-0.0.movements\",\"./movements/RWPRPGM-0.5.movements\"}"
param **.ueD2DTx[*].mobilityType "\"BonnMotionMobility\""
param **.usePreconfiguredTxParams false
param *.eNodeB.d2dCapable false
param *.eNodeB.mobility.initFromDisplayString false
param *.eNodeB.mobility.initialX 300m
param *.eNodeB.mobility.initialY 300m
param *.eNodeB.nic.phy.enableD2DCqiReporting true
param *.eNodeB.txPower 19952.62315mw
param *.numUeCell 0
param *.numUeD2DRx 1
param *.numUeD2DTx 1
param *.ue*.macCellId 1
param *.ue*.masterId 1
param *.ue*.mobility.initFromDisplayString false
param *.ue*[0].macCellId 1
param *.ue*[0].masterId 1
param *.ue*[0].mobility.initFromDisplayString false
param *.ueD2D*.numTcpApps 1
param *.ueD2D*[*].d2dCapable true
param *.ueD2D*[0].d2dCapable false
param *.ueD2D*[0].numTcpApps 1
param *.ueD2DRx[0].mobility.initialX 310m
param *.ueD2DRx[0].mobility.initialY 350m
param *.ueD2DRx[0].tcpApp[*].localPort 1000
param *.ueD2DRx[0].tcpApp[*].typename "\"TCPSinkApp\""
param *.ueD2DTx*.tcpApp[*].connectAddress "\"ueD2DTx[0]\""
param *.ueD2DTx*.tcpApp[*].localAddress "\"ueD2DTx\""
param *.ueD2DTx*.tcpApp[*].localPort 1000
param *.ueD2DTx*.tcpApp[*].sendBytes 1GiB
param *.ueD2DTx*.tcpApp[*].typename "\"TCPSessionApp\""
param *.ueD2DTx*.tcpApp[0].active true
param *.ueD2DTx*.tcpApp[0].connectPort 1000
param *.ueD2DTx*.tcpApp[0].tOpen uniform(0.010s,0.1s)
param *.ueD2DTx*.tcpApp[0].tSend uniform(0.15s,0.5s)
param *.ueD2DTx[0].mobility.initialX 290m
param *.ueD2DTx[0].mobility.initialY 350m
param *.ueD2DTx[0].nic.d2dPeerAddresses "\"ueD2DTx[1]\""
param *.ueD2DTx[0].tcpApp[*].localPort 1000
param *.ueD2DTx[0].tcpApp[*].sendBytes 1GiB
param *.ueD2DTx[0].tcpApp[*].typename "\"TCPSessionApp\""
param *.ueD2DTx[0].tcpApp[0].active true
param *.ueD2DTx[0].tcpApp[0].connectAddress "\"ueD2DRx[0]\""
param *.ueD2DTx[0].tcpApp[0].connectPort 1000
param *.ueD2DTx[0].tcpApp[0].localAddress "\"ueD2DTx[0]\""
param *.ueD2DTx[0].tcpApp[0].tOpen uniform(0.010s,0.1s)
param *.ueD2DTx[0].tcpApp[0].tSend uniform(0.15s,0.5s)
param *.ueD2DTx[1].nic.d2dPeerAddresses "\"ueD2DTx[0]\""

vector 8  CAIN.server.ppp[0].queue  queueLength:vector  ETV
attr interpolationmode  sample-hold
attr title  "queue length, vector"
vector 9  CAIN.server.ppp[0].ppp  txState:vector  ETV
attr interpolationmode  sample-hold
attr title  "tx state, vector"
vector 24  CAIN.router.ppp[0].queue  queueLength:vector  ETV
attr interpolationmode  sample-hold
attr title  "queue length, vector"
vector 25  CAIN.router.ppp[0].ppp  txState:vector  ETV
attr interpolationmode  sample-hold
attr title  "tx state, vector"
vector 35  CAIN.router.ppp[1].queue  queueLength:vector  ETV
attr interpolationmode  sample-hold
attr title  "queue length, vector"
vector 36  CAIN.router.ppp[1].ppp  txState:vector  ETV
attr interpolationmode  sample-hold
attr title  "tx state, vector"
vector 56  CAIN.pgw.ppp[0].queue  queueLength:vector  ETV
attr interpolationmode  sample-hold
attr title  "queue length, vector"
vector 57  CAIN.pgw.ppp[0].ppp  txState:vector  ETV
attr interpolationmode  sample-hold
attr title  "tx state, vector"
vector 67  CAIN.pgw.pppInterface.queue  queueLength:vector  ETV
attr interpolationmode  sample-hold
attr title  "queue length, vector"
vector 68  CAIN.pgw.pppInterface.ppp  txState:vector  ETV
attr interpolationmode  sample-hold
attr title  "tx state, vector"
vector 104  CAIN.eNodeB.pppIf.queue  queueLength:vector  ETV
attr interpolationmode  sample-hold
attr title  "queue length, vector"
vector 105  CAIN.eNodeB.pppIf.ppp  txState:vector  ETV
attr interpolationmode  sample-hold
attr title  "tx state, vector"
vector 138  CAIN.ueD2DTx[0].nic.phy  servingCell:vector  ETV
attr source  servingCell
attr title  "ID of the serving eNodeB for the UE, vector"
attr unit  ""
vector 165  CAIN.ueD2DTx[1].nic.phy  servingCell:vector  ETV
attr source  servingCell
attr title  "ID of the serving eNodeB for the UE, vector"
attr unit  ""
vector 192  CAIN.ueD2DTx[2].nic.phy  servingCell:vector  ETV
attr source  servingCell
attr title  "ID of the serving eNodeB for the UE, vector"
attr unit  ""
vector 219  CAIN.ueD2DTx[3].nic.phy  servingCell:vector  ETV
attr source  servingCell
attr title  "ID of the serving eNodeB for the UE, vector"
attr unit  ""
vector 246  CAIN.ueD2DTx[4].nic.phy  servingCell:vector  ETV
attr source  servingCell
attr title  "ID of the serving eNodeB for the UE, vector"
attr unit  ""
vector 85  CAIN.eNodeB.nic.mac  receivedPacketFromLowerLayer:vector(packetBytes)  ETV
attr interpolationmode  none
attr source  receivedPacketFromLowerLayer
vector 264  CAIN.ueD2DTx[0].tcp  tcpRcvQueueBytes  ETV
vector 251  CAIN.ueD2DTx[0].tcp  "advertised window"  ETV
vector 250  CAIN.ueD2DTx[0].tcp  "receive window"  ETV
vector 253  CAIN.ueD2DTx[0].tcp  "sent ack"  ETV
vector 117  CAIN.ueD2DTx[0].nic.pdcpRrc  receivedPacketFromUpperLayer:vector(packetBytes)  ETV
attr interpolationmode  none
attr source  receivedPacketFromUpperLayer
vector 120  CAIN.ueD2DTx[0].nic.pdcpRrc  sentPacketToLowerLayer:vector(packetBytes)  ETV
attr interpolationmode  none
attr source  sentPacketToLowerLayer
vector 121  CAIN.ueD2DTx[0].nic.mac  receivedPacketFromUpperLayer:vector(packetBytes)  ETV
attr interpolationmode  none
attr source  receivedPacketFromUpperLayer
vector 124  CAIN.ueD2DTx[0].nic.mac  sentPacketToLowerLayer:vector(packetBytes)  ETV
attr interpolationmode  none
attr source  sentPacketToLowerLayer
vector 96  CAIN.eNodeB.nic.mac  racpkt:vector  ETV
attr interpolationmode  none
attr title  "eNB received racpkt message, vector"
vector 97  CAIN.eNodeB.nic.mac  racDistanceSignal:vector  ETV
attr interpolationmode  none
attr title  "Rac distance to enb, vector"
vector 87  CAIN.eNodeB.nic.mac  sentPacketToLowerLayer:vector(packetBytes)  ETV
attr interpolationmode  none
attr source  sentPacketToLowerLayer
vector 230  CAIN.ueD2DTx[4].nic.mac  receivedPacketFromLowerLayer:vector(packetBytes)  ETV
attr interpolationmode  none
attr source  receivedPacketFromLowerLayer
vector 241  CAIN.ueD2DTx[4].nic.mac  racpkt:vector  ETV
attr interpolationmode  none
attr title  "eNB received racpkt message, vector"
vector 242  CAIN.ueD2DTx[4].nic.mac  racDistanceSignal:vector  ETV
attr interpolationmode  none
attr title  "Rac distance to enb, vector"
vector 232  CAIN.ueD2DTx[4].nic.mac  sentPacketToLowerLayer:vector(packetBytes)  ETV
attr interpolationmode  none
attr source  sentPacketToLowerLayer
vector 122  CAIN.ueD2DTx[0].nic.mac  receivedPacketFromLowerLayer:vector(packetBytes)  ETV
attr interpolationmode  none
attr source  receivedPacketFromLowerLayer
vector 149  CAIN.ueD2DTx[1].nic.mac  receivedPacketFromLowerLayer:vector(packetBytes)  ETV
attr interpolationmode  none
attr source  receivedPacketFromLowerLayer
vector 160  CAIN.ueD2DTx[1].nic.mac  racpkt:vector  ETV
attr interpolationmode  none
attr title  "eNB received racpkt message, vector"
vector 161  CAIN.ueD2DTx[1].nic.mac  racDistanceSignal:vector  ETV
attr interpolationmode  none
attr title  "Rac distance to enb, vector"
vector 151  CAIN.ueD2DTx[1].nic.mac  sentPacketToLowerLayer:vector(packetBytes)  ETV
attr interpolationmode  none
attr source  sentPacketToLowerLayer
vector 203  CAIN.ueD2DTx[3].nic.mac  receivedPacketFromLowerLayer:vector(packetBytes)  ETV
attr interpolationmode  none
attr source  receivedPacketFromLowerLayer
vector 214  CAIN.ueD2DTx[3].nic.mac  racpkt:vector  ETV
attr interpolationmode  none
attr title  "eNB received racpkt message, vector"
vector 215  CAIN.ueD2DTx[3].nic.mac  racDistanceSignal:vector  ETV
attr interpolationmode  none
attr title  "Rac distance to enb, vector"
vector 205  CAIN.ueD2DTx[3].nic.mac  sentPacketToLowerLayer:vector(packetBytes)  ETV
attr interpolationmode  none
attr source  sentPacketToLowerLayer
vector 176  CAIN.ueD2DTx[2].nic.mac  receivedPacketFromLowerLayer:vector(packetBytes)  ETV
attr interpolationmode  none
attr source  receivedPacketFromLowerLayer
vector 187  CAIN.ueD2DTx[2].nic.mac  racpkt:vector  ETV
attr interpolationmode  none
attr title  "eNB received racpkt message, vector"
vector 188  CAIN.ueD2DTx[2].nic.mac  racDistanceSignal:vector  ETV
attr interpolationmode  none
attr title  "Rac distance to enb, vector"
vector 178  CAIN.ueD2DTx[2].nic.mac  sentPacketToLowerLayer:vector(packetBytes)  ETV
attr interpolationmode  none
attr source  sentPacketToLowerLayer
vector 133  CAIN.ueD2DTx[0].nic.mac  racpkt:vector  ETV
attr interpolationmode  none
attr title  "eNB received racpkt message, vector"
vector 134  CAIN.ueD2DTx[0].nic.mac  racDistanceSignal:vector  ETV
attr interpolationmode  none
attr title  "Rac distance to enb, vector"
vector 93  CAIN.eNodeB.nic.mac  ServedDevs:vector  ETV
attr interpolationmode  none
attr title  "# of devices served on cain forwarding, vector"
vector 91  CAIN.eNodeB.nic.mac  DistanceSignal:vector  ETV
attr interpolationmode  none
attr title  "Distance to enb, vector"
vector 89  CAIN.eNodeB.nic.mac  CainMessage:vector  ETV
attr interpolationmode  none
attr title  "eNB received CAIN message, vector"
vector 288  CAIN.ueD2DTx[1].tcp  tcpRcvQueueBytes  ETV
vector 275  CAIN.ueD2DTx[1].tcp  "advertised window"  ETV
vector 274  CAIN.ueD2DTx[1].tcp  "receive window"  ETV
vector 277  CAIN.ueD2DTx[1].tcp  "sent ack"  ETV
vector 144  CAIN.ueD2DTx[1].nic.pdcpRrc  receivedPacketFromUpperLayer:vector(packetBytes)  ETV
attr interpolationmode  none
attr source  receivedPacketFromUpperLayer
vector 147  CAIN.ueD2DTx[1].nic.pdcpRrc  sentPacketToLowerLayer:vector(packetBytes)  ETV
attr interpolationmode  none
attr source  sentPacketToLowerLayer
vector 148  CAIN.ueD2DTx[1].nic.mac  receivedPacketFromUpperLayer:vector(packetBytes)  ETV
attr interpolationmode  none
attr source  receivedPacketFromUpperLayer
vector 92  CAIN.eNodeB.nic.mac  HopDistanceSignal:vector  ETV
attr interpolationmode  none
attr title  "Distance to enb with hop forwarding, vector"
vector 90  CAIN.eNodeB.nic.mac  CainHopMessage:vector  ETV
attr interpolationmode  none
attr title  "eNB received CAIN hop message, vector"
vector 150  CAIN.ueD2DTx[1].nic.mac  sentPacketToUpperLayer:vector(packetBytes)  ETV
attr interpolationmode  none
attr source  sentPacketToUpperLayer
vector 99  CAIN.eNodeB.nic.phy  averageCqiUlvect:vector  ETV
attr source  averageCqiUlvect
attr title  "Average Cqi reported in UL, vector"
attr unit  cqi
vector 86  CAIN.eNodeB.nic.mac  sentPacketToUpperLayer:vector(packetBytes)  ETV
attr interpolationmode  none
attr source  sentPacketToUpperLayer
vector 81  CAIN.eNodeB.nic.pdcpRrc  receivedPacketFromLowerLayer:vector(packetBytes)  ETV
attr interpolationmode  none
attr source  receivedPacketFromLowerLayer
vector 82  CAIN.eNodeB.nic.pdcpRrc  sentPacketToUpperLayer:vector(packetBytes)  ETV
attr interpolationmode  none
attr source  sentPacketToUpperLayer
vector 80  CAIN.eNodeB.nic.pdcpRrc  receivedPacketFromUpperLayer:vector(packetBytes)  ETV
attr interpolationmode  none
attr source  receivedPacketFromUpperLayer
vector 83  CAIN.eNodeB.nic.pdcpRrc  sentPacketToLowerLayer:vector(packetBytes)  ETV
attr interpolationmode  none
attr source  sentPacketToLowerLayer
vector 84  CAIN.eNodeB.nic.mac  receivedPacketFromUpperLayer:vector(packetBytes)  ETV
attr interpolationmode  none
attr source  receivedPacketFromUpperLayer
vector 88  CAIN.eNodeB.nic.mac  measuredItbs:vector  ETV
attr source  measuredItbs
attr title  "TBS index, vector"
attr unit  ""
vector 243  CAIN.ueD2DTx[4].nic.phy  averageCqiDlvect:vector  ETV
attr source  averageCqiDlvect
attr title  "Average Cqi reported in DL, vector"
attr unit  cqi
vector 231  CAIN.ueD2DTx[4].nic.mac  sentPacketToUpperLayer:vector(packetBytes)  ETV
attr interpolationmode  none
attr source  sentPacketToUpperLayer
vector 226  CAIN.ueD2DTx[4].nic.pdcpRrc  receivedPacketFromLowerLayer:vector(packetBytes)  ETV
attr interpolationmode  none
attr source  receivedPacketFromLowerLayer
vector 227  CAIN.ueD2DTx[4].nic.pdcpRrc  sentPacketToUpperLayer:vector(packetBytes)  ETV
attr interpolationmode  none
attr source  sentPacketToUpperLayer
vector 312  CAIN.ueD2DTx[2].tcp  tcpRcvQueueBytes  ETV
vector 299  CAIN.ueD2DTx[2].tcp  "advertised window"  ETV
vector 298  CAIN.ueD2DTx[2].tcp  "receive window"  ETV
vector 301  CAIN.ueD2DTx[2].tcp  "sent ack"  ETV
vector 171  CAIN.ueD2DTx[2].nic.pdcpRrc  receivedPacketFromUpperLayer:vector(packetBytes)  ETV
attr interpolationmode  none
attr source  receivedPacketFromUpperLayer
vector 174  CAIN.ueD2DTx[2].nic.pdcpRrc  sentPacketToLowerLayer:vector(packetBytes)  ETV
attr interpolationmode  none
attr source  sentPacketToLowerLayer
vector 175  CAIN.ueD2DTx[2].nic.mac  receivedPacketFromUpperLayer:vector(packetBytes)  ETV
attr interpolationmode  none
attr source  receivedPacketFromUpperLayer
vector 336  CAIN.ueD2DTx[3].tcp  tcpRcvQueueBytes  ETV
vector 323  CAIN.ueD2DTx[3].tcp  "advertised window"  ETV
vector 322  CAIN.ueD2DTx[3].tcp  "receive window"  ETV
vector 325  CAIN.ueD2DTx[3].tcp  "sent ack"  ETV
vector 198  CAIN.ueD2DTx[3].nic.pdcpRrc  receivedPacketFromUpperLayer:vector(packetBytes)  ETV
attr interpolationmode  none
attr source  receivedPacketFromUpperLayer
vector 201  CAIN.ueD2DTx[3].nic.pdcpRrc  sentPacketToLowerLayer:vector(packetBytes)  ETV
attr interpolationmode  none
attr source  sentPacketToLowerLayer
vector 202  CAIN.ueD2DTx[3].nic.mac  receivedPacketFromUpperLayer:vector(packetBytes)  ETV
attr interpolationmode  none
attr source  receivedPacketFromUpperLayer
vector 177  CAIN.ueD2DTx[2].nic.mac  sentPacketToUpperLayer:vector(packetBytes)  ETV
attr interpolationmode  none
attr source  sentPacketToUpperLayer
vector 204  CAIN.ueD2DTx[3].nic.mac  sentPacketToUpperLayer:vector(packetBytes)  ETV
attr interpolationmode  none
attr source  sentPacketToUpperLayer
vector 135  CAIN.ueD2DTx[0].nic.phy  averageCqiDlvect:vector  ETV
attr source  averageCqiDlvect
attr title  "Average Cqi reported in DL, vector"
attr unit  cqi
vector 123  CAIN.ueD2DTx[0].nic.mac  sentPacketToUpperLayer:vector(packetBytes)  ETV
attr interpolationmode  none
attr source  sentPacketToUpperLayer
vector 118  CAIN.ueD2DTx[0].nic.pdcpRrc  receivedPacketFromLowerLayer:vector(packetBytes)  ETV
attr interpolationmode  none
attr source  receivedPacketFromLowerLayer
vector 119  CAIN.ueD2DTx[0].nic.pdcpRrc  sentPacketToUpperLayer:vector(packetBytes)  ETV
attr interpolationmode  none
attr source  sentPacketToUpperLayer
vector 360  CAIN.ueD2DTx[4].tcp  tcpRcvQueueBytes  ETV
vector 347  CAIN.ueD2DTx[4].tcp  "advertised window"  ETV
vector 346  CAIN.ueD2DTx[4].tcp  "receive window"  ETV
vector 349  CAIN.ueD2DTx[4].tcp  "sent ack"  ETV
vector 225  CAIN.ueD2DTx[4].nic.pdcpRrc  receivedPacketFromUpperLayer:vector(packetBytes)  ETV
attr interpolationmode  none
attr source  receivedPacketFromUpperLayer
vector 228  CAIN.ueD2DTx[4].nic.pdcpRrc  sentPacketToLowerLayer:vector(packetBytes)  ETV
attr interpolationmode  none
attr source  sentPacketToLowerLayer
vector 229  CAIN.ueD2DTx[4].nic.mac  receivedPacketFromUpperLayer:vector(packetBytes)  ETV
attr interpolationmode  none
attr source  receivedPacketFromUpperLayer
vector 162  CAIN.ueD2DTx[1].nic.phy  averageCqiDlvect:vector  ETV
attr source  averageCqiDlvect
attr title  "Average Cqi reported in DL, vector"
attr unit  cqi
vector 145  CAIN.ueD2DTx[1].nic.pdcpRrc  receivedPacketFromLowerLayer:vector(packetBytes)  ETV
attr interpolationmode  none
attr source  receivedPacketFromLowerLayer
vector 146  CAIN.ueD2DTx[1].nic.pdcpRrc  sentPacketToUpperLayer:vector(packetBytes)  ETV
attr interpolationmode  none
attr source  sentPacketToUpperLayer
8	17353 8 0 0 0 0 1 0 0 0 0
9	17361 8 0 0 0 0 1 0 0 0 0
24	17369 9 0 0 0 0 1 0 0 0 0
25	17378 9 0 0 0 0 1 0 0 0 0
35	17387 9 0 0 0 0 1 0 0 0 0
36	17396 9 0 0 0 0 1 0 0 0 0
56	17405 9 0 0 0 0 1 0 0 0 0
57	17414 9 0 0 0 0 1 0 0 0 0
67	17423 9 0 0 0 0 1 0 0 0 0
68	17432 9 0 0 0 0 1 0 0 0 0
80	17441 215 876 228509 0.054 9.098 12 44 44 528 23232
81	17656 215 871 228504 0.054 9.098 12 45 45 540 24300
82	17871 215 871 228504 0.054 9.098 12 44 44 528 23232
83	18086 215 876 228509 0.054 9.098 12 45 45 540 24300
84	18301 430 879 228535 0.054 9.099 24 45 47 1104 50808
85	18731 320131 60 251045 0.002 10 18403 0 0 0 0
86	338862 523 867 228531 0.054 9.099 30 0 47 576 23412
87	339385 176888 472 250945 0.041 9.997 10074 0 0 0 0
88	516273 215 904 228531 0.055 9.099 12 26 26 312 8112
89	516488 162789 576 251045 0.045 10 8025 1 8025 32204325 172303873525
90	679277 122631 635 250970 0.047 9.997 6018 1 6018 18111171 72668055109
91	801908 38151 576 251045 0.045 10 2007 240 240 481680 115603200
92	840059 117720 635 250970 0.047 9.997 6018 166 284 1396176 338468368
93	957779 34137 576 251045 0.045 10 2007 1 1 2007 2007
96	991916 163958 472 250970 0.041 9.997 8028 1 8028 32228406 172497171714
97	1155874 157037 472 250970 0.041 9.997 8028 101 284 1177041 222788205
99	1312911 362 778 228562 0.051 9.1 21 9 15 237 2775
104	1313273 10 0 0 0 0 1 0 0 0 0
105	1313283 10 0 0 0 0 1 0 0 0 0
117	1313293 83 452 226456 0.039044685068 9.039044685068 3 44 44 132 5808
118	1313376 114 1887 228000 0.078 9.081 6 45 45 270 12150
119	1313490 114 1887 228000 0.078 9.081 6 44 44 264 11616
120	1313604 83 452 226456 0.039044685068 9.039044685068 3 45 45 135 6075
121	1313687 83 455 226459 0.039044685068 9.039044685068 3 45 45 135 6075
122	1313770 74453 515 251017 0.043 9.999 4011 0 0 0 0
123	1388223 114 1883 227996 0.078 9.081 6 47 47 282 13254
124	1388337 73302 457 251028 0.04 10 4009 0 0 0 0
133	1461639 42230 553 251017 0.044 9.999 2010 1 2010 2021055 2708887385
134	1503869 41321 553 251017 0.044 9.999 2010 0 240 481680 115603200
135	1545190 114 1791 227925 0.075 9.078 6 15 15 90 1350
138	1545304 10 0 0 0 0 1 1 1 1 1
144	1545314 80 581 226610 0.04591139175 9.04591139175 3 44 44 132 5808
145	1545394 57 2588 228614 0.103 9.103 3 45 45 135 6075
146	1545451 57 2588 228614 0.103 9.103 3 44 44 132 5808
147	1545508 80 581 226610 0.04591139175 9.04591139175 3 45 45 135 6075
148	1545588 133 584 226754 0.04591139175 9.05 6 45 47 276 12702
149	1545721 257604 517 251042 0.043 10 14058 0 0 0 0
150	1803325 107 721 228610 0.05 9.103 6 0 47 141 6627
151	1803432 257607 517 251042 0.043 10 14058 0 0 0 0
160	2061039 302540 517 251042 0.043 10 14049 1 14049 98694225 924403009425
161	2363579 285548 517 251042 0.043 10 14049 101 284 2207700 420530724
162	2649127 51 2534 228560 0.1 9.1 3 15 15 45 675
165	2649178 10 0 0 0 0 1 1 1 1 1
171	2649188 84 1042 227070 0.059799300311 9.059799300311 3 44 44 132 5808
174	2649272 84 1042 227070 0.059799300311 9.059799300311 3 45 45 135 6075
175	2649356 198 1045 227509 0.059799300311 9.069 9 16 45 282 10110
176	2649554 37468 550 251014 0.044 9.999 2019 0 0 0 0
177	2687022 108 1202 227505 0.064 9.069 6 0 0 0 0
178	2687130 37465 550 251014 0.044 9.999 2019 0 0 0 0
187	2724595 42166 550 251014 0.044 9.999 2007 1 2007 2015028 2696779140
188	2766761 41266 550 251014 0.044 9.999 2007 240 240 481680 115603200
192	2808027 10 0 0 0 0 1 1 1 1 1
198	2808037 81 1159 227186 0.06257481047 9.06257481047 3 44 44 132 5808
201	2808118 81 1159 227186 0.06257481047 9.06257481047 3 45 45 135 6075
202	2808199 192 1162 227670 0.06257481047 9.072 9 4 45 282 12198
203	2808391 37468 547 251011 0.044 9.999 2019 0 0 0 0
204	2845859 108 1356 227666 0.067 9.072 6 0 0 0 0
205	2845967 37468 547 251011 0.044 9.999 2019 0 0 0 0
214	2883435 42166 547 251011 0.044 9.999 2007 1 2007 2015028 2696779140
215	2925601 41266 547 251011 0.044 9.999 2007 240 240 481680 115603200
219	2966867 10 0 0 0 0 1 1 1 1 1
225	2966877 84 2198 228224 0.089225798692 9.089225798692 3 44 44 132 5808
226	2966961 57 1020 227049 0.059 9.059 3 45 45 135 6075
227	2967018 57 1020 227049 0.059 9.059 3 44 44 132 5808
228	2967075 84 2198 228224 0.089225798692 9.089225798692 3 45 45 135 6075
229	2967159 141 2201 228379 0.089225798692 9.094 6 45 47 276 12702
230	2967300 298125 491 251020 0.042 9.999 16062 0 0 0 0
231	3265425 111 1016 228375 0.059 9.094 6 0 47 141 6627
232	3265536 298123 491 251020 0.042 9.999 16062 0 0 0 0
241	3563659 351070 491 251020 0.042 9.999 16053 1 16053 128857431 1379075179039
242	3914729 314014 491 251020 0.042 9.999 16053 0 240 1926000 462240000
243	4228743 56 953 226982 0.056 9.056 3 15 15 45 675
246	4228799 10 0 0 0 0 1 1 1 1 1
250	4228809 89 449 226453 0.039044685068 9.039044685068 3 7504 7504 22512 168930048
251	4228898 89 449 226453 0.039044685068 9.039044685068 3 7504 7504 22512 168930048
253	4228987 80 449 226453 0.039044685068 9.039044685068 3 0 0 0 0
264	4229067 80 449 226453 0.039044685068 9.039044685068 3 0 0 0 0
274	4229147 86 578 226607 0.04591139175 9.04591139175 3 7504 7504 22512 168930048
275	4229233 86 578 226607 0.04591139175 9.04591139175 3 7504 7504 22512 168930048
277	4229319 77 578 226607 0.04591139175 9.04591139175 3 0 0 0 0
288	4229396 77 578 226607 0.04591139175 9.04591139175 3 0 0 0 0
298	4229473 90 1039 227067 0.059799300311 9.059799300311 3 7504 7504 22512 168930048
299	4229563 90 1039 227067 0.059799300311 9.059799300311 3 7504 7504 22512 168930048
301	4229653 81 1039 227067 0.059799300311 9.059799300311 3 0 0 0 0
312	4229734 81 1039 227067 0.059799300311 9.059799300311 3 0 0 0 0
322	4229815 87 1156 227183 0.06257481047 9.06257481047 3 7504 7504 22512 168930048
323	4229902 87 1156 227183 0.06257481047 9.06257481047 3 7504 7504 22512 168930048
325	4229989 78 1156 227183 0.06257481047 9.06257481047 3 0 0 0 0
336	4230067 78 1156 227183 0.06257481047 9.06257481047 3 0 0 0 0
346	4230145 90 2195 228221 0.089225798692 9.089225798692 3 7504 7504 22512 168930048
347	4230235 90 2195 228221 0.089225798692 9.089225798692 3 7504 7504 22512 168930048
349	4230325 81 2195 228221 0.089225798692 9.089225798692 3 0 0 0 0
360	4230406 81 2195 228221 0.089225798692 9.089225798692 3 0 0 0 0
