file 6844 1566497355                                            
version 2
run CAIN-2-20190412-17:52:46-8888
attr configname CAIN
attr datetime 20190412-17:52:46
attr experiment CAIN
attr inifile omnetpp.ini
attr iterationvars ""
attr iterationvars2 $repetition=2
attr measurement ""
attr network lte.simulations.networks.CAIN
attr processid 8888
attr repetition 2
attr replication #2
attr resultdir results
attr runnumber 2
attr seedset 2
param **.**.amcMode "\"AUTO\""
param **.amcMode "\"D2D\""
param **.channelControl.alpha 1.0
param **.channelControl.carrierFrequency 2100e+6Hz
param **.channelControl.pMax 10W
param **.d2dCqi 7
param **.deployer.numRbDl 50
param **.deployer.numRbUl 50
param **.fbDelay 1
param **.feedbackComputation "xmldoc(\"config_channel.xml\")"
param **.mobility.constraintAreaMaxZ 0m
param **.mobility.constraintAreaMinZ 0m
param **.nic.phy.channelModel "xmldoc(\"config_channel.xml\")"
param **.numBands 50
param **.rbAllocationType "\"localized\""
param **.routingRecorder.enabled false
param **.tcpApp[*].tClose -1s
param **.usePreconfiguredTxParams false
param *.eNodeB.d2dCapable false
param *.eNodeB.mobility.initFromDisplayString false
param *.eNodeB.mobility.initialX 300m
param *.eNodeB.mobility.initialY 300m
param *.eNodeB.nic.phy.enableD2DCqiReporting true
param *.eNodeB.pwrThresh -50
param *.numUeCell 0
param *.numUeD2DRx 1
param *.numUeD2DTx 1
param *.ue*[0].macCellId 1
param *.ue*[0].masterId 1
param *.ue*[0].mobility.initFromDisplayString false
param *.ueD2D*[*].d2dCapable true
param *.ueD2D*[0].d2dCapable false
param *.ueD2D*[0].numTcpApps 1
param *.ueD2DRx[0].mobility.initialX 310m
param *.ueD2DRx[0].mobility.initialY 350m
param *.ueD2DRx[0].nic.d2dPeerAddresses "\"ueD2DTx[0]\""
param *.ueD2DRx[0].tcpApp[*].localPort 1000
param *.ueD2DRx[0].tcpApp[*].typename "\"TCPSinkApp\""
param *.ueD2DTx[0].mobility.initialX 290m
param *.ueD2DTx[0].mobility.initialY 350m
param *.ueD2DTx[0].nic.d2dPeerAddresses "\"ueD2DRx[0]\""
param *.ueD2DTx[0].tcpApp[*].localPort 1000
param *.ueD2DTx[0].tcpApp[*].sendBytes 1GiB
param *.ueD2DTx[0].tcpApp[*].typename "\"TCPSessionApp\""
param *.ueD2DTx[0].tcpApp[0].active true
param *.ueD2DTx[0].tcpApp[0].connectAddress "\"ueD2DRx[0]\""
param *.ueD2DTx[0].tcpApp[0].connectPort 1000
param *.ueD2DTx[0].tcpApp[0].localAddress "\"ueD2DTx[0]\""
param *.ueD2DTx[0].tcpApp[0].tOpen uniform(0.010s,0.1s)
param *.ueD2DTx[0].tcpApp[0].tSend uniform(0.15s,0.5s)
vector 8  CAIN.server.ppp[0].queue  queueLength:vector  ETV
attr interpolationmode sample-hold
attr title "queue length, vector"
8	5958 8 0 0 0 0 1 0 0 0 0
vector 9  CAIN.server.ppp[0].ppp  txState:vector  ETV
attr interpolationmode sample-hold
attr title "tx state, vector"
9	5966 8 0 0 0 0 1 0 0 0 0
vector 24  CAIN.router.ppp[0].queue  queueLength:vector  ETV
attr interpolationmode sample-hold
attr title "queue length, vector"
24	5974 9 0 0 0 0 1 0 0 0 0
vector 25  CAIN.router.ppp[0].ppp  txState:vector  ETV
attr interpolationmode sample-hold
attr title "tx state, vector"
25	5983 9 0 0 0 0 1 0 0 0 0
vector 35  CAIN.router.ppp[1].queue  queueLength:vector  ETV
attr interpolationmode sample-hold
attr title "queue length, vector"
35	5992 9 0 0 0 0 1 0 0 0 0
vector 36  CAIN.router.ppp[1].ppp  txState:vector  ETV
attr interpolationmode sample-hold
attr title "tx state, vector"
36	6001 9 0 0 0 0 1 0 0 0 0
vector 56  CAIN.pgw.ppp[0].queue  queueLength:vector  ETV
attr interpolationmode sample-hold
attr title "queue length, vector"
56	6010 9 0 0 0 0 1 0 0 0 0
vector 57  CAIN.pgw.ppp[0].ppp  txState:vector  ETV
attr interpolationmode sample-hold
attr title "tx state, vector"
57	6019 9 0 0 0 0 1 0 0 0 0
vector 67  CAIN.pgw.pppInterface.queue  queueLength:vector  ETV
attr interpolationmode sample-hold
attr title "queue length, vector"
67	6028 9 0 0 0 0 1 0 0 0 0
vector 68  CAIN.pgw.pppInterface.ppp  txState:vector  ETV
attr interpolationmode sample-hold
attr title "tx state, vector"
68	6037 9 0 0 0 0 1 0 0 0 0
vector 95  CAIN.eNodeB.pppIf.queue  queueLength:vector  ETV
attr interpolationmode sample-hold
attr title "queue length, vector"
95	6413 9 0 0 0 0 1 0 0 0 0
vector 96  CAIN.eNodeB.pppIf.ppp  txState:vector  ETV
attr interpolationmode sample-hold
attr title "tx state, vector"
96	6422 9 0 0 0 0 1 0 0 0 0
vector 120  CAIN.ueD2DTx[0].nic.phy  servingCell:vector  ETV
attr source servingCell
attr title "ID of the serving eNodeB for the UE, vector"
attr unit ""
120	6718 10 0 0 0 0 1 1 1 1 1
vector 137  CAIN.ueD2DRx[0].nic.phy  servingCell:vector  ETV
attr source servingCell
attr title "ID of the serving eNodeB for the UE, vector"
attr unit ""
137	6728 10 0 0 0 0 1 1 1 1 1
vector 85  CAIN.eNodeB.nic.mac  receivedPacketFromLowerLayer:vector(packetBytes)  ETV
attr interpolationmode none
attr source receivedPacketFromLowerLayer
85	6046 247 35 261 0.002 0.04 17 0 0 0 0
vector 179  CAIN.ueD2DTx[0].tcp  tcpRcvQueueBytes  ETV
179	6819 25 203 203 0.033984720812 0.033984720812 1 0 0 0 0
vector 166  CAIN.ueD2DTx[0].tcp  "advertised window"  ETV
166	6766 28 203 203 0.033984720812 0.033984720812 1 7504 7504 7504 56310016
vector 165  CAIN.ueD2DTx[0].tcp  "receive window"  ETV
165	6738 28 203 203 0.033984720812 0.033984720812 1 7504 7504 7504 56310016
vector 168  CAIN.ueD2DTx[0].tcp  "sent ack"  ETV
168	6794 25 203 203 0.033984720812 0.033984720812 1 0 0 0 0
vector 108  CAIN.ueD2DTx[0].nic.pdcpRrc  receivedPacketFromUpperLayer:vector(packetBytes)  ETV
attr interpolationmode none
attr source receivedPacketFromUpperLayer
108	6431 26 206 206 0.033984720812 0.033984720812 1 44 44 44 1936
vector 111  CAIN.ueD2DTx[0].nic.pdcpRrc  sentPacketToLowerLayer:vector(packetBytes)  ETV
attr interpolationmode none
attr source sentPacketToLowerLayer
111	6457 26 206 206 0.033984720812 0.033984720812 1 45 45 45 2025
vector 112  CAIN.ueD2DTx[0].nic.mac  receivedPacketFromUpperLayer:vector(packetBytes)  ETV
attr interpolationmode none
attr source receivedPacketFromUpperLayer
112	6483 43 209 297 0.033984720812 0.044 2 45 47 92 4234
vector 115  CAIN.ueD2DTx[0].nic.mac  sentPacketToLowerLayer:vector(packetBytes)  ETV
attr interpolationmode none
attr source sentPacketToLowerLayer
115	6638 80 211 300 0.034 0.044 5 0 0 0 0
vector 87  CAIN.eNodeB.nic.mac  sentPacketToLowerLayer:vector(packetBytes)  ETV
attr interpolationmode none
attr source sentPacketToLowerLayer
87	6293 89 220 272 0.035 0.042 6 0 0 0 0
vector 113  CAIN.ueD2DTx[0].nic.mac  receivedPacketFromLowerLayer:vector(packetBytes)  ETV
attr interpolationmode none
attr source receivedPacketFromLowerLayer
113	6526 96 230 291 0.036 0.043 6 0 0 0 0
vector 90  CAIN.eNodeB.nic.phy  averageCqiUlvect:vector  ETV
attr source averageCqiUlvect
attr title "Average Cqi reported in UL, vector"
attr unit cqi
90	6397 16 254 254 0.039 0.039 1 15 15 15 225
vector 88  CAIN.eNodeB.nic.mac  measuredItbs:vector  ETV
attr source measuredItbs
attr title "TBS index, vector"
attr unit ""
88	6382 15 272 272 0.042 0.042 1 0 0 0 0
vector 114  CAIN.ueD2DTx[0].nic.mac  sentPacketToUpperLayer:vector(packetBytes)  ETV
attr interpolationmode none
attr source sentPacketToUpperLayer
114	6622 16 293 293 0.044 0.044 1 0 0 0 0
