version 2
run CAIN-21-20200515-14:00:56-16354
attr configname CAIN
attr datetime 20200515-14:00:56
attr dist 200
attr experiment CAIN
attr inifile omnetpp.ini
attr iterationvars "$numUe=20, $pwr=-50, $dist=200, $mob=\"./movements/RWPRPGM-0.0.movements\""
attr iterationvars2 "$numUe=20, $pwr=-50, $dist=200, $mob=\"./movements/RWPRPGM-0.0.movements\", $repetition=1"
attr measurement "$numUe=20, $pwr=-50, $dist=200, $mob=\"./movements/RWPRPGM-0.0.movements\""
attr mob "\"./movements/RWPRPGM-0.0.movements\""
attr network lte.simulations.networks.CAIN
attr numUe 20
attr processid 16354
attr pwr -50
attr repetition 1
attr replication #1
attr resultdir results
attr runnumber 21
attr seedset 1
param **.**.amcMode "\"AUTO\""
param **.amcMode "\"D2D\""
param **.cainNetwork true
param **.channelControl.alpha 1.0
param **.channelControl.carrierFrequency 2100e+6Hz
param **.channelControl.pMax 10W
param **.d2dCqi 7
param **.deployer.numRbDl 50
param **.deployer.numRbUl 50
param **.distThresh ${dist=200}
param **.fbDelay 1
param **.feedbackComputation "xmldoc(\"config_channel.xml\")"
param **.mobility.constraintAreaMaxX 1000m
param **.mobility.constraintAreaMaxY 1000m
param **.mobility.constraintAreaMaxZ 0m
param **.mobility.constraintAreaMinX 0m
param **.mobility.constraintAreaMinY 0m
param **.mobility.constraintAreaMinZ 0m
param **.nic.phy.channelModel "xmldoc(\"config_channel.xml\")"
param **.numBands 50
param **.pwrThresh "${pwr= -50}"
param **.qtdThresh 3
param **.rbAllocationType "\"localized\""
param **.routingRecorder.enabled false
param **.tcpApp[*].tClose -1s
param **.ueD2DTx[*].mobility.changeAngleBy "normal(0deg, 30deg)"
param **.ueD2DTx[*].mobility.changeInterval "normal(5s, 0.1s)"
param **.ueD2DTx[*].mobility.nodeId -1
param **.ueD2DTx[*].mobility.speed "normal(2mps, 0.01mps)"
param **.ueD2DTx[*].mobility.traceFile "${mob=\"./movements/RWP-0.0.movements\",\"./movements/RWP-0.5.movements\",\"./movements/RPGM-0.0.movements\",\"./movements/RPGM-0.5.movements\",\"./movements/RWPRPGM-0.0.movements\",\"./movements/RWPRPGM-0.5.movements\"}"
param **.ueD2DTx[*].mobilityType "\"BonnMotionMobility\""
param **.usePreconfiguredTxParams false
param *.eNodeB*.numX2Apps 1
param *.eNodeB*.x2App[*].server.localPort "5000 + ancestorIndex(1)"
param *.eNodeB.d2dCapable false
param *.eNodeB.mobility.initFromDisplayString false
param *.eNodeB.mobility.initialX 300m
param *.eNodeB.mobility.initialY 300m
param *.eNodeB.nic.phy.enableD2DCqiReporting true
param *.eNodeB.txPower 19952.62315mw
param *.eNodeB.x2App[0].client.connectAddress "\"eNodeB1%x2ppp0\""
param *.eNodeB1.d2dCapable true
param *.eNodeB1.mobility.initFromDisplayString false
param *.eNodeB1.mobility.initialX 700m
param *.eNodeB1.mobility.initialY 300m
param *.eNodeB1.nic.phy.enableD2DCqiReporting true
param *.eNodeB1.txPower 19952.62315mw
param *.eNodeB1.x2App[0].client.connectAddress "\"eNodeB%x2ppp0\""
param *.extCell[*].bandAllocationType "\"FULL_ALLOC\""
param *.extCell[*].bandUtilization 0.5
param *.extCell[*].txDirection "\"ANISOTROPIC\""
param *.extCell[*].txPower 20
param *.extCell[0].position_x 100m
param *.extCell[0].position_y 600m
param *.extCell[0].txAngle 315
param *.extCell[1].position_x 600m
param *.extCell[1].position_y 600m
param *.extCell[1].txAngle 225
param *.numExtCells 2
param *.numUeCell 0
param *.numUeD2DRx 1
param *.numUeD2DTx 1
param *.ue*.macCellId 1
param *.ue*.masterId 1
param *.ue*.mobility.initFromDisplayString false
param *.ue*[0].macCellId 1
param *.ue*[0].masterId 1
param *.ue*[0].mobility.initFromDisplayString false
param *.ueD2D*.numTcpApps 1
param *.ueD2D*[*].d2dCapable true
param *.ueD2D*[0].d2dCapable false
param *.ueD2D*[0].numTcpApps 1
param *.ueD2DRx[0].mobility.initialX 310m
param *.ueD2DRx[0].mobility.initialY 350m
param *.ueD2DRx[0].tcpApp[*].localPort 1000
param *.ueD2DRx[0].tcpApp[*].typename "\"TCPSinkApp\""
param *.ueD2DTx*.nic.d2dPeerAddresses "\"ueD2DTx[1]\""
param *.ueD2DTx*.tcpApp[*].connectAddress "\"ueD2DTx[0]\""
param *.ueD2DTx*.tcpApp[*].localAddress "\"ueD2DTx\""
param *.ueD2DTx*.tcpApp[*].localPort 1000
param *.ueD2DTx*.tcpApp[*].sendBytes 1GiB
param *.ueD2DTx*.tcpApp[*].typename "\"TCPSessionApp\""
param *.ueD2DTx*.tcpApp[0].active true
param *.ueD2DTx*.tcpApp[0].connectPort 1000
param *.ueD2DTx*.tcpApp[0].tOpen uniform(0.010s,0.1s)
param *.ueD2DTx*.tcpApp[0].tSend uniform(0.15s,0.5s)
param *.ueD2DTx[0].mobility.initialX 290m
param *.ueD2DTx[0].mobility.initialY 350m
param *.ueD2DTx[0].tcpApp[*].localPort 1000
param *.ueD2DTx[0].tcpApp[*].sendBytes 1GiB
param *.ueD2DTx[0].tcpApp[*].typename "\"TCPSessionApp\""
param *.ueD2DTx[0].tcpApp[0].active true
param *.ueD2DTx[0].tcpApp[0].connectAddress "\"ueD2DRx[0]\""
param *.ueD2DTx[0].tcpApp[0].connectPort 1000
param *.ueD2DTx[0].tcpApp[0].localAddress "\"ueD2DTx[0]\""
param *.ueD2DTx[0].tcpApp[0].tOpen uniform(0.010s,0.1s)
param *.ueD2DTx[0].tcpApp[0].tSend uniform(0.15s,0.5s)

vector 8  CAIN.server.ppp[0].queue  queueLength:vector  ETV
attr interpolationmode  sample-hold
attr title  "queue length, vector"
vector 9  CAIN.server.ppp[0].ppp  txState:vector  ETV
attr interpolationmode  sample-hold
attr title  "tx state, vector"
vector 24  CAIN.router.ppp[0].queue  queueLength:vector  ETV
attr interpolationmode  sample-hold
attr title  "queue length, vector"
vector 25  CAIN.router.ppp[0].ppp  txState:vector  ETV
attr interpolationmode  sample-hold
attr title  "tx state, vector"
vector 35  CAIN.router.ppp[1].queue  queueLength:vector  ETV
attr interpolationmode  sample-hold
attr title  "queue length, vector"
vector 36  CAIN.router.ppp[1].ppp  txState:vector  ETV
attr interpolationmode  sample-hold
attr title  "tx state, vector"
vector 56  CAIN.pgw.ppp[0].queue  queueLength:vector  ETV
attr interpolationmode  sample-hold
attr title  "queue length, vector"
vector 57  CAIN.pgw.ppp[0].ppp  txState:vector  ETV
attr interpolationmode  sample-hold
attr title  "tx state, vector"
vector 67  CAIN.pgw.ppp[1].queue  queueLength:vector  ETV
attr interpolationmode  sample-hold
attr title  "queue length, vector"
vector 68  CAIN.pgw.ppp[1].ppp  txState:vector  ETV
attr interpolationmode  sample-hold
attr title  "tx state, vector"
vector 78  CAIN.pgw.pppInterface.queue  queueLength:vector  ETV
attr interpolationmode  sample-hold
attr title  "queue length, vector"
vector 79  CAIN.pgw.pppInterface.ppp  txState:vector  ETV
attr interpolationmode  sample-hold
attr title  "tx state, vector"
vector 120  CAIN.eNodeB.pppIf.queue  queueLength:vector  ETV
attr interpolationmode  sample-hold
attr title  "queue length, vector"
vector 121  CAIN.eNodeB.pppIf.ppp  txState:vector  ETV
attr interpolationmode  sample-hold
attr title  "tx state, vector"
vector 131  CAIN.eNodeB.x2ppp[0].queue  queueLength:vector  ETV
attr interpolationmode  sample-hold
attr title  "queue length, vector"
vector 132  CAIN.eNodeB.x2ppp[0].ppp  txState:vector  ETV
attr interpolationmode  sample-hold
attr title  "tx state, vector"
vector 178  CAIN.eNodeB1.pppIf.queue  queueLength:vector  ETV
attr interpolationmode  sample-hold
attr title  "queue length, vector"
vector 179  CAIN.eNodeB1.pppIf.ppp  txState:vector  ETV
attr interpolationmode  sample-hold
attr title  "tx state, vector"
vector 189  CAIN.eNodeB1.x2ppp[0].queue  queueLength:vector  ETV
attr interpolationmode  sample-hold
attr title  "queue length, vector"
vector 190  CAIN.eNodeB1.x2ppp[0].ppp  txState:vector  ETV
attr interpolationmode  sample-hold
attr title  "tx state, vector"
vector 231  CAIN.ueD2DTx[0].nic.phy  servingCell:vector  ETV
attr source  servingCell
attr title  "ID of the serving eNodeB for the UE, vector"
attr unit  ""
vector 263  CAIN.ueD2DTx[1].nic.phy  servingCell:vector  ETV
attr source  servingCell
attr title  "ID of the serving eNodeB for the UE, vector"
attr unit  ""
vector 295  CAIN.ueD2DTx[2].nic.phy  servingCell:vector  ETV
attr source  servingCell
attr title  "ID of the serving eNodeB for the UE, vector"
attr unit  ""
vector 327  CAIN.ueD2DTx[3].nic.phy  servingCell:vector  ETV
attr source  servingCell
attr title  "ID of the serving eNodeB for the UE, vector"
attr unit  ""
vector 359  CAIN.ueD2DTx[4].nic.phy  servingCell:vector  ETV
attr source  servingCell
attr title  "ID of the serving eNodeB for the UE, vector"
attr unit  ""
vector 391  CAIN.ueD2DTx[5].nic.phy  servingCell:vector  ETV
attr source  servingCell
attr title  "ID of the serving eNodeB for the UE, vector"
attr unit  ""
vector 423  CAIN.ueD2DTx[6].nic.phy  servingCell:vector  ETV
attr source  servingCell
attr title  "ID of the serving eNodeB for the UE, vector"
attr unit  ""
vector 455  CAIN.ueD2DTx[7].nic.phy  servingCell:vector  ETV
attr source  servingCell
attr title  "ID of the serving eNodeB for the UE, vector"
attr unit  ""
vector 487  CAIN.ueD2DTx[8].nic.phy  servingCell:vector  ETV
attr source  servingCell
attr title  "ID of the serving eNodeB for the UE, vector"
attr unit  ""
vector 519  CAIN.ueD2DTx[9].nic.phy  servingCell:vector  ETV
attr source  servingCell
attr title  "ID of the serving eNodeB for the UE, vector"
attr unit  ""
vector 551  CAIN.ueD2DTx[10].nic.phy  servingCell:vector  ETV
attr source  servingCell
attr title  "ID of the serving eNodeB for the UE, vector"
attr unit  ""
vector 583  CAIN.ueD2DTx[11].nic.phy  servingCell:vector  ETV
attr source  servingCell
attr title  "ID of the serving eNodeB for the UE, vector"
attr unit  ""
vector 615  CAIN.ueD2DTx[12].nic.phy  servingCell:vector  ETV
attr source  servingCell
attr title  "ID of the serving eNodeB for the UE, vector"
attr unit  ""
vector 647  CAIN.ueD2DTx[13].nic.phy  servingCell:vector  ETV
attr source  servingCell
attr title  "ID of the serving eNodeB for the UE, vector"
attr unit  ""
vector 679  CAIN.ueD2DTx[14].nic.phy  servingCell:vector  ETV
attr source  servingCell
attr title  "ID of the serving eNodeB for the UE, vector"
attr unit  ""
vector 711  CAIN.ueD2DTx[15].nic.phy  servingCell:vector  ETV
attr source  servingCell
attr title  "ID of the serving eNodeB for the UE, vector"
attr unit  ""
vector 743  CAIN.ueD2DTx[16].nic.phy  servingCell:vector  ETV
attr source  servingCell
attr title  "ID of the serving eNodeB for the UE, vector"
attr unit  ""
vector 775  CAIN.ueD2DTx[17].nic.phy  servingCell:vector  ETV
attr source  servingCell
attr title  "ID of the serving eNodeB for the UE, vector"
attr unit  ""
vector 807  CAIN.ueD2DTx[18].nic.phy  servingCell:vector  ETV
attr source  servingCell
attr title  "ID of the serving eNodeB for the UE, vector"
attr unit  ""
vector 839  CAIN.ueD2DTx[19].nic.phy  servingCell:vector  ETV
attr source  servingCell
attr title  "ID of the serving eNodeB for the UE, vector"
attr unit  ""
vector 863  CAIN.eNodeB.sctp  "Throughput of Association 3"  ETV
vector 885  CAIN.eNodeB1.sctp  "Throughput of Association 4"  ETV
vector 907  CAIN.eNodeB.sctp  "Throughput of Association 1"  ETV
vector 927  CAIN.eNodeB.sctp  "Fast Recovery State 1:10.0.5.2"  ETV
vector 956  CAIN.eNodeB1.sctp  "Throughput of Association 2"  ETV
vector 976  CAIN.eNodeB1.sctp  "Fast Recovery State 2:10.0.5.1"  ETV
vector 128  CAIN.eNodeB.x2ppp[0].queue  rcvdPk:vector(packetBytes)  ETV
attr interpolationmode  none
attr title  "received packets, vector(packetBytes)"
vector 130  CAIN.eNodeB.x2ppp[0].queue  queueingTime:vector  ETV
attr interpolationmode  none
attr title  "queueing time, vector"
vector 186  CAIN.eNodeB1.x2ppp[0].queue  rcvdPk:vector(packetBytes)  ETV
attr interpolationmode  none
attr title  "received packets, vector(packetBytes)"
vector 188  CAIN.eNodeB1.x2ppp[0].queue  queueingTime:vector  ETV
attr interpolationmode  none
attr title  "queueing time, vector"
vector 137  CAIN.eNodeB.x2ppp[0].ppp  rcvdPkFromHL:vector(packetBytes)  ETV
attr interpolationmode  none
attr source  packetReceivedFromUpper
attr title  "packets received from higher layer, vector(packetBytes)"
vector 133  CAIN.eNodeB.x2ppp[0].ppp  txPk:vector(packetBytes)  ETV
attr interpolationmode  none
attr source  packetSentToLower
attr title  "packets transmitted, vector(packetBytes)"
vector 195  CAIN.eNodeB1.x2ppp[0].ppp  rcvdPkFromHL:vector(packetBytes)  ETV
attr interpolationmode  none
attr source  packetReceivedFromUpper
attr title  "packets received from higher layer, vector(packetBytes)"
vector 191  CAIN.eNodeB1.x2ppp[0].ppp  txPk:vector(packetBytes)  ETV
attr interpolationmode  none
attr source  packetSentToLower
attr title  "packets transmitted, vector(packetBytes)"
vector 192  CAIN.eNodeB1.x2ppp[0].ppp  rxPkOk:vector(packetBytes)  ETV
attr interpolationmode  none
attr source  rxPkOk
attr title  "packets received OK, vector(packetBytes)"
vector 196  CAIN.eNodeB1.x2ppp[0].ppp  passedUpPk:vector(packetBytes)  ETV
attr interpolationmode  none
attr source  packetSentToUpper
attr title  "packets passed to higher layer, vector(packetBytes)"
vector 134  CAIN.eNodeB.x2ppp[0].ppp  rxPkOk:vector(packetBytes)  ETV
attr interpolationmode  none
attr source  rxPkOk
attr title  "packets received OK, vector(packetBytes)"
vector 138  CAIN.eNodeB.x2ppp[0].ppp  passedUpPk:vector(packetBytes)  ETV
attr interpolationmode  none
attr source  packetSentToUpper
attr title  "packets passed to higher layer, vector(packetBytes)"
vector 1005  CAIN.eNodeB1.sctp  "Throughput of Association 4"  ETV
vector 882  CAIN.eNodeB1.sctp  "Peer Rwnd 4"  ETV
vector 1025  CAIN.eNodeB1.sctp  "Fast Recovery State 5:10.0.4.1"  ETV
vector 1052  CAIN.eNodeB1.sctp  "Fast Recovery State 5:10.0.2.2"  ETV
vector 1079  CAIN.eNodeB1.sctp  "Fast Recovery State 5:10.0.5.1"  ETV
vector 1108  CAIN.eNodeB.sctp  "Throughput of Association 3"  ETV
vector 860  CAIN.eNodeB.sctp  "Peer Rwnd 3"  ETV
vector 1128  CAIN.eNodeB.sctp  "Fast Recovery State 6:10.0.4.2"  ETV
vector 1155  CAIN.eNodeB.sctp  "Fast Recovery State 6:10.0.3.2"  ETV
vector 1182  CAIN.eNodeB.sctp  "Fast Recovery State 6:10.0.5.2"  ETV
vector 904  CAIN.eNodeB.sctp  "Peer Rwnd 1"  ETV
vector 1209  CAIN.eNodeB.sctp  "Fast Recovery State 1:10.0.4.2"  ETV
vector 1236  CAIN.eNodeB.sctp  "Fast Recovery State 1:10.0.3.2"  ETV
vector 953  CAIN.eNodeB1.sctp  "Peer Rwnd 2"  ETV
vector 1263  CAIN.eNodeB1.sctp  "Fast Recovery State 2:10.0.4.1"  ETV
vector 1290  CAIN.eNodeB1.sctp  "Fast Recovery State 2:10.0.2.2"  ETV
vector 1035  CAIN.eNodeB1.sctp  "Slow Start Threshold 5:10.0.2.2"  ETV
vector 1036  CAIN.eNodeB1.sctp  "Congestion Window 5:10.0.2.2"  ETV
vector 1037  CAIN.eNodeB1.sctp  "Bandwidth 5:10.0.2.2"  ETV
vector 1040  CAIN.eNodeB1.sctp  "HB Sent 5:10.0.2.2"  ETV
vector 1033  CAIN.eNodeB1.sctp  "RTO 5:10.0.2.2"  ETV
vector 1008  CAIN.eNodeB1.sctp  "Slow Start Threshold 5:10.0.4.1"  ETV
vector 1009  CAIN.eNodeB1.sctp  "Congestion Window 5:10.0.4.1"  ETV
vector 1010  CAIN.eNodeB1.sctp  "Bandwidth 5:10.0.4.1"  ETV
vector 1013  CAIN.eNodeB1.sctp  "HB Sent 5:10.0.4.1"  ETV
vector 1006  CAIN.eNodeB1.sctp  "RTO 5:10.0.4.1"  ETV
vector 1062  CAIN.eNodeB1.sctp  "Slow Start Threshold 5:10.0.5.1"  ETV
vector 1063  CAIN.eNodeB1.sctp  "Congestion Window 5:10.0.5.1"  ETV
vector 1064  CAIN.eNodeB1.sctp  "Bandwidth 5:10.0.5.1"  ETV
vector 1060  CAIN.eNodeB1.sctp  "RTO 5:10.0.5.1"  ETV
vector 1138  CAIN.eNodeB.sctp  "Slow Start Threshold 6:10.0.3.2"  ETV
vector 1139  CAIN.eNodeB.sctp  "Congestion Window 6:10.0.3.2"  ETV
vector 1140  CAIN.eNodeB.sctp  "Bandwidth 6:10.0.3.2"  ETV
vector 1143  CAIN.eNodeB.sctp  "HB Sent 6:10.0.3.2"  ETV
vector 1136  CAIN.eNodeB.sctp  "RTO 6:10.0.3.2"  ETV
vector 1111  CAIN.eNodeB.sctp  "Slow Start Threshold 6:10.0.4.2"  ETV
vector 1112  CAIN.eNodeB.sctp  "Congestion Window 6:10.0.4.2"  ETV
vector 1113  CAIN.eNodeB.sctp  "Bandwidth 6:10.0.4.2"  ETV
vector 1116  CAIN.eNodeB.sctp  "HB Sent 6:10.0.4.2"  ETV
vector 1109  CAIN.eNodeB.sctp  "RTO 6:10.0.4.2"  ETV
vector 1165  CAIN.eNodeB.sctp  "Slow Start Threshold 6:10.0.5.2"  ETV
vector 1166  CAIN.eNodeB.sctp  "Congestion Window 6:10.0.5.2"  ETV
vector 1167  CAIN.eNodeB.sctp  "Bandwidth 6:10.0.5.2"  ETV
vector 1163  CAIN.eNodeB.sctp  "RTO 6:10.0.5.2"  ETV
vector 916  CAIN.eNodeB.sctp  "HB ACK Sent 1:10.0.5.2"  ETV
vector 917  CAIN.eNodeB.sctp  "HB Received 1:10.0.5.2"  ETV
vector 965  CAIN.eNodeB1.sctp  "HB ACK Sent 2:10.0.5.1"  ETV
vector 966  CAIN.eNodeB1.sctp  "HB Received 2:10.0.5.1"  ETV
vector 1219  CAIN.eNodeB.sctp  "Slow Start Threshold 1:10.0.3.2"  ETV
vector 1220  CAIN.eNodeB.sctp  "Congestion Window 1:10.0.3.2"  ETV
vector 1221  CAIN.eNodeB.sctp  "Bandwidth 1:10.0.3.2"  ETV
vector 1224  CAIN.eNodeB.sctp  "HB Sent 1:10.0.3.2"  ETV
vector 1217  CAIN.eNodeB.sctp  "RTO 1:10.0.3.2"  ETV
vector 1192  CAIN.eNodeB.sctp  "Slow Start Threshold 1:10.0.4.2"  ETV
vector 1193  CAIN.eNodeB.sctp  "Congestion Window 1:10.0.4.2"  ETV
vector 1194  CAIN.eNodeB.sctp  "Bandwidth 1:10.0.4.2"  ETV
vector 1197  CAIN.eNodeB.sctp  "HB Sent 1:10.0.4.2"  ETV
vector 1190  CAIN.eNodeB.sctp  "RTO 1:10.0.4.2"  ETV
vector 910  CAIN.eNodeB.sctp  "Slow Start Threshold 1:10.0.5.2"  ETV
vector 911  CAIN.eNodeB.sctp  "Congestion Window 1:10.0.5.2"  ETV
vector 912  CAIN.eNodeB.sctp  "Bandwidth 1:10.0.5.2"  ETV
vector 908  CAIN.eNodeB.sctp  "RTO 1:10.0.5.2"  ETV
vector 1273  CAIN.eNodeB1.sctp  "Slow Start Threshold 2:10.0.2.2"  ETV
vector 1274  CAIN.eNodeB1.sctp  "Congestion Window 2:10.0.2.2"  ETV
vector 1275  CAIN.eNodeB1.sctp  "Bandwidth 2:10.0.2.2"  ETV
vector 1278  CAIN.eNodeB1.sctp  "HB Sent 2:10.0.2.2"  ETV
vector 1271  CAIN.eNodeB1.sctp  "RTO 2:10.0.2.2"  ETV
vector 1246  CAIN.eNodeB1.sctp  "Slow Start Threshold 2:10.0.4.1"  ETV
vector 1247  CAIN.eNodeB1.sctp  "Congestion Window 2:10.0.4.1"  ETV
vector 1248  CAIN.eNodeB1.sctp  "Bandwidth 2:10.0.4.1"  ETV
vector 1251  CAIN.eNodeB1.sctp  "HB Sent 2:10.0.4.1"  ETV
vector 1244  CAIN.eNodeB1.sctp  "RTO 2:10.0.4.1"  ETV
vector 959  CAIN.eNodeB1.sctp  "Slow Start Threshold 2:10.0.5.1"  ETV
vector 960  CAIN.eNodeB1.sctp  "Congestion Window 2:10.0.5.1"  ETV
vector 961  CAIN.eNodeB1.sctp  "Bandwidth 2:10.0.5.1"  ETV
vector 957  CAIN.eNodeB1.sctp  "RTO 2:10.0.5.1"  ETV
vector 1173  CAIN.eNodeB.sctp  "HB ACK Received 6:10.0.5.2"  ETV
vector 1164  CAIN.eNodeB.sctp  "RTT 6:10.0.5.2"  ETV
vector 1070  CAIN.eNodeB1.sctp  "HB ACK Received 5:10.0.5.1"  ETV
vector 1061  CAIN.eNodeB1.sctp  "RTT 5:10.0.5.1"  ETV
vector 1171  CAIN.eNodeB.sctp  "HB ACK Sent 6:10.0.5.2"  ETV
vector 1172  CAIN.eNodeB.sctp  "HB Received 6:10.0.5.2"  ETV
vector 1068  CAIN.eNodeB1.sctp  "HB ACK Sent 5:10.0.5.1"  ETV
vector 1069  CAIN.eNodeB1.sctp  "HB Received 5:10.0.5.1"  ETV
vector 967  CAIN.eNodeB1.sctp  "HB ACK Received 2:10.0.5.1"  ETV
vector 958  CAIN.eNodeB1.sctp  "RTT 2:10.0.5.1"  ETV
vector 918  CAIN.eNodeB.sctp  "HB ACK Received 1:10.0.5.2"  ETV
vector 909  CAIN.eNodeB.sctp  "RTT 1:10.0.5.2"  ETV
vector 96  CAIN.eNodeB.nic.mac  receivedPacketFromLowerLayer:vector(packetBytes)  ETV
attr interpolationmode  none
attr source  receivedPacketFromLowerLayer
vector 1305  CAIN.eNodeB.sctp  "SendQueue of Association 6"  ETV
vector 1168  CAIN.eNodeB.sctp  "TSN Sent 6:10.0.5.2"  ETV
vector 1175  CAIN.eNodeB.sctp  "Outstanding Bytes 6:10.0.5.2"  ETV
vector 848  CAIN.eNodeB.sctp  "Outstanding Bytes 3:Total"  ETV
vector 1174  CAIN.eNodeB.sctp  "Queued Sent Bytes 6:10.0.5.2"  ETV
vector 847  CAIN.eNodeB.sctp  "Queued Sent Bytes 3:Total"  ETV
vector 963  CAIN.eNodeB1.sctp  "TSN Received 2:10.0.5.1"  ETV
vector 939  CAIN.eNodeB1.sctp  "Queued Received Bytes 2:Total"  ETV
vector 935  CAIN.eNodeB1.sctp  "Advertised Receiver Window 2"  ETV
vector 944  CAIN.eNodeB1.sctp  "Number of Total Gap Blocks Stored 2"  ETV
vector 945  CAIN.eNodeB1.sctp  "Number of Revokable Gap Blocks Stored 2"  ETV
vector 946  CAIN.eNodeB1.sctp  "Number of Non-Revokable Gap Blocks Stored 2"  ETV
vector 947  CAIN.eNodeB1.sctp  "Number of Duplicate TSNs Stored 2"  ETV
vector 951  CAIN.eNodeB1.sctp  "Length of SACK Sent 2"  ETV
vector 948  CAIN.eNodeB1.sctp  "Number of Revokable Gap Blocks Sent 2"  ETV
vector 949  CAIN.eNodeB1.sctp  "Number of Non-Revokable Gap Blocks Sent 2"  ETV
vector 950  CAIN.eNodeB1.sctp  "Number of Duplicate TSNs Sent 2"  ETV
vector 955  CAIN.eNodeB1.sctp  "End to End Delay of Association 2"  ETV
vector 199  CAIN.eNodeB1.x2App[0].client  rcvdPk:vector(packetBytes)  ETV
attr interpolationmode  none
attr source  rcvdPk
attr title  "packets received, vector(packetBytes)"
vector 1304  CAIN.eNodeB.sctp  "Number of Gap Blocks in Last SACK of Association 6"  ETV
vector 849  CAIN.eNodeB.sctp  "Number of Revokable Gap Blocks in SACK 3"  ETV
vector 850  CAIN.eNodeB.sctp  "Number of Non-Revokable Gap Blocks in SACK 3"  ETV
vector 1185  CAIN.eNodeB.sctp  "TSN Acked CumAck 6:10.0.5.2"  ETV
vector 1151  CAIN.eNodeB.sctp  "Number of Gap Acked Chunks in Last SACK 6:10.0.3.2"  ETV
vector 1152  CAIN.eNodeB.sctp  "Number of Non-Revokable Gap Acked Chunks in Last SACK 6:10.0.3.2"  ETV
vector 1153  CAIN.eNodeB.sctp  "Number of Gap Missed Chunks in Last SACK 6:10.0.3.2"  ETV
vector 1124  CAIN.eNodeB.sctp  "Number of Gap Acked Chunks in Last SACK 6:10.0.4.2"  ETV
vector 1125  CAIN.eNodeB.sctp  "Number of Non-Revokable Gap Acked Chunks in Last SACK 6:10.0.4.2"  ETV
vector 1126  CAIN.eNodeB.sctp  "Number of Gap Missed Chunks in Last SACK 6:10.0.4.2"  ETV
vector 1178  CAIN.eNodeB.sctp  "Number of Gap Acked Chunks in Last SACK 6:10.0.5.2"  ETV
vector 1179  CAIN.eNodeB.sctp  "Number of Non-Revokable Gap Acked Chunks in Last SACK 6:10.0.5.2"  ETV
vector 1180  CAIN.eNodeB.sctp  "Number of Gap Missed Chunks in Last SACK 6:10.0.5.2"  ETV
vector 859  CAIN.eNodeB.sctp  "Arwnd in Last SACK 3"  ETV
vector 1187  CAIN.eNodeB.sctp  "TSN PseudoCumAck 6:10.0.5.2"  ETV
vector 1188  CAIN.eNodeB.sctp  "TSN RTXPseudoCumAck 6:10.0.5.2"  ETV
vector 1181  CAIN.eNodeB.sctp  "Partial Bytes Acked 6:10.0.5.2"  ETV
vector 1333  CAIN.ueD2DTx[13].tcp  tcpRcvQueueBytes  ETV
vector 1320  CAIN.ueD2DTx[13].tcp  "advertised window"  ETV
vector 1319  CAIN.ueD2DTx[13].tcp  "receive window"  ETV
vector 1322  CAIN.ueD2DTx[13].tcp  "sent ack"  ETV
vector 621  CAIN.ueD2DTx[13].nic.pdcpRrc  receivedPacketFromUpperLayer:vector(packetBytes)  ETV
attr interpolationmode  none
attr source  receivedPacketFromUpperLayer
vector 624  CAIN.ueD2DTx[13].nic.pdcpRrc  sentPacketToLowerLayer:vector(packetBytes)  ETV
attr interpolationmode  none
attr source  sentPacketToLowerLayer
vector 625  CAIN.ueD2DTx[13].nic.mac  receivedPacketFromUpperLayer:vector(packetBytes)  ETV
attr interpolationmode  none
attr source  receivedPacketFromUpperLayer
vector 628  CAIN.ueD2DTx[13].nic.mac  sentPacketToLowerLayer:vector(packetBytes)  ETV
attr interpolationmode  none
attr source  sentPacketToLowerLayer
vector 111  CAIN.eNodeB.nic.mac  racpkt:vector  ETV
attr interpolationmode  none
attr title  "eNB received racpkt message, vector"
vector 112  CAIN.eNodeB.nic.mac  racDistanceSignal:vector  ETV
attr interpolationmode  none
attr title  "Rac distance to enb, vector"
vector 113  CAIN.eNodeB.nic.mac  racServedDevsSignal:vector  ETV
attr interpolationmode  none
attr title  "# of devices served on rac arriavall, vector"
vector 98  CAIN.eNodeB.nic.mac  sentPacketToLowerLayer:vector(packetBytes)  ETV
attr interpolationmode  none
attr source  sentPacketToLowerLayer
vector 626  CAIN.ueD2DTx[13].nic.mac  receivedPacketFromLowerLayer:vector(packetBytes)  ETV
attr interpolationmode  none
attr source  receivedPacketFromLowerLayer
vector 1357  CAIN.ueD2DTx[18].tcp  tcpRcvQueueBytes  ETV
vector 1344  CAIN.ueD2DTx[18].tcp  "advertised window"  ETV
vector 1343  CAIN.ueD2DTx[18].tcp  "receive window"  ETV
vector 1346  CAIN.ueD2DTx[18].tcp  "sent ack"  ETV
vector 781  CAIN.ueD2DTx[18].nic.pdcpRrc  receivedPacketFromUpperLayer:vector(packetBytes)  ETV
attr interpolationmode  none
attr source  receivedPacketFromUpperLayer
vector 784  CAIN.ueD2DTx[18].nic.pdcpRrc  sentPacketToLowerLayer:vector(packetBytes)  ETV
attr interpolationmode  none
attr source  sentPacketToLowerLayer
vector 785  CAIN.ueD2DTx[18].nic.mac  receivedPacketFromUpperLayer:vector(packetBytes)  ETV
attr interpolationmode  none
attr source  receivedPacketFromUpperLayer
vector 788  CAIN.ueD2DTx[18].nic.mac  sentPacketToLowerLayer:vector(packetBytes)  ETV
attr interpolationmode  none
attr source  sentPacketToLowerLayer
vector 786  CAIN.ueD2DTx[18].nic.mac  receivedPacketFromLowerLayer:vector(packetBytes)  ETV
attr interpolationmode  none
attr source  receivedPacketFromLowerLayer
vector 1381  CAIN.ueD2DTx[6].tcp  tcpRcvQueueBytes  ETV
vector 1368  CAIN.ueD2DTx[6].tcp  "advertised window"  ETV
vector 1367  CAIN.ueD2DTx[6].tcp  "receive window"  ETV
vector 1370  CAIN.ueD2DTx[6].tcp  "sent ack"  ETV
vector 397  CAIN.ueD2DTx[6].nic.pdcpRrc  receivedPacketFromUpperLayer:vector(packetBytes)  ETV
attr interpolationmode  none
attr source  receivedPacketFromUpperLayer
vector 400  CAIN.ueD2DTx[6].nic.pdcpRrc  sentPacketToLowerLayer:vector(packetBytes)  ETV
attr interpolationmode  none
attr source  sentPacketToLowerLayer
vector 401  CAIN.ueD2DTx[6].nic.mac  receivedPacketFromUpperLayer:vector(packetBytes)  ETV
attr interpolationmode  none
attr source  receivedPacketFromUpperLayer
vector 404  CAIN.ueD2DTx[6].nic.mac  sentPacketToLowerLayer:vector(packetBytes)  ETV
attr interpolationmode  none
attr source  sentPacketToLowerLayer
vector 1405  CAIN.ueD2DTx[14].tcp  tcpRcvQueueBytes  ETV
vector 1392  CAIN.ueD2DTx[14].tcp  "advertised window"  ETV
vector 1391  CAIN.ueD2DTx[14].tcp  "receive window"  ETV
vector 1394  CAIN.ueD2DTx[14].tcp  "sent ack"  ETV
vector 653  CAIN.ueD2DTx[14].nic.pdcpRrc  receivedPacketFromUpperLayer:vector(packetBytes)  ETV
attr interpolationmode  none
attr source  receivedPacketFromUpperLayer
vector 656  CAIN.ueD2DTx[14].nic.pdcpRrc  sentPacketToLowerLayer:vector(packetBytes)  ETV
attr interpolationmode  none
attr source  sentPacketToLowerLayer
vector 657  CAIN.ueD2DTx[14].nic.mac  receivedPacketFromUpperLayer:vector(packetBytes)  ETV
attr interpolationmode  none
attr source  receivedPacketFromUpperLayer
vector 660  CAIN.ueD2DTx[14].nic.mac  sentPacketToLowerLayer:vector(packetBytes)  ETV
attr interpolationmode  none
attr source  sentPacketToLowerLayer
vector 1429  CAIN.ueD2DTx[12].tcp  tcpRcvQueueBytes  ETV
vector 1416  CAIN.ueD2DTx[12].tcp  "advertised window"  ETV
vector 1415  CAIN.ueD2DTx[12].tcp  "receive window"  ETV
vector 1418  CAIN.ueD2DTx[12].tcp  "sent ack"  ETV
vector 589  CAIN.ueD2DTx[12].nic.pdcpRrc  receivedPacketFromUpperLayer:vector(packetBytes)  ETV
attr interpolationmode  none
attr source  receivedPacketFromUpperLayer
vector 592  CAIN.ueD2DTx[12].nic.pdcpRrc  sentPacketToLowerLayer:vector(packetBytes)  ETV
attr interpolationmode  none
attr source  sentPacketToLowerLayer
vector 593  CAIN.ueD2DTx[12].nic.mac  receivedPacketFromUpperLayer:vector(packetBytes)  ETV
attr interpolationmode  none
attr source  receivedPacketFromUpperLayer
vector 596  CAIN.ueD2DTx[12].nic.mac  sentPacketToLowerLayer:vector(packetBytes)  ETV
attr interpolationmode  none
attr source  sentPacketToLowerLayer
vector 402  CAIN.ueD2DTx[6].nic.mac  receivedPacketFromLowerLayer:vector(packetBytes)  ETV
attr interpolationmode  none
attr source  receivedPacketFromLowerLayer
vector 658  CAIN.ueD2DTx[14].nic.mac  receivedPacketFromLowerLayer:vector(packetBytes)  ETV
attr interpolationmode  none
attr source  receivedPacketFromLowerLayer
vector 594  CAIN.ueD2DTx[12].nic.mac  receivedPacketFromLowerLayer:vector(packetBytes)  ETV
attr interpolationmode  none
attr source  receivedPacketFromLowerLayer
vector 1453  CAIN.ueD2DTx[2].tcp  tcpRcvQueueBytes  ETV
vector 1440  CAIN.ueD2DTx[2].tcp  "advertised window"  ETV
vector 1439  CAIN.ueD2DTx[2].tcp  "receive window"  ETV
vector 1442  CAIN.ueD2DTx[2].tcp  "sent ack"  ETV
vector 269  CAIN.ueD2DTx[2].nic.pdcpRrc  receivedPacketFromUpperLayer:vector(packetBytes)  ETV
attr interpolationmode  none
attr source  receivedPacketFromUpperLayer
vector 272  CAIN.ueD2DTx[2].nic.pdcpRrc  sentPacketToLowerLayer:vector(packetBytes)  ETV
attr interpolationmode  none
attr source  sentPacketToLowerLayer
vector 273  CAIN.ueD2DTx[2].nic.mac  receivedPacketFromUpperLayer:vector(packetBytes)  ETV
attr interpolationmode  none
attr source  receivedPacketFromUpperLayer
vector 276  CAIN.ueD2DTx[2].nic.mac  sentPacketToLowerLayer:vector(packetBytes)  ETV
attr interpolationmode  none
attr source  sentPacketToLowerLayer
vector 1477  CAIN.ueD2DTx[15].tcp  tcpRcvQueueBytes  ETV
vector 1464  CAIN.ueD2DTx[15].tcp  "advertised window"  ETV
vector 1463  CAIN.ueD2DTx[15].tcp  "receive window"  ETV
vector 1466  CAIN.ueD2DTx[15].tcp  "sent ack"  ETV
vector 685  CAIN.ueD2DTx[15].nic.pdcpRrc  receivedPacketFromUpperLayer:vector(packetBytes)  ETV
attr interpolationmode  none
attr source  receivedPacketFromUpperLayer
vector 688  CAIN.ueD2DTx[15].nic.pdcpRrc  sentPacketToLowerLayer:vector(packetBytes)  ETV
attr interpolationmode  none
attr source  sentPacketToLowerLayer
vector 689  CAIN.ueD2DTx[15].nic.mac  receivedPacketFromUpperLayer:vector(packetBytes)  ETV
attr interpolationmode  none
attr source  receivedPacketFromUpperLayer
vector 692  CAIN.ueD2DTx[15].nic.mac  sentPacketToLowerLayer:vector(packetBytes)  ETV
attr interpolationmode  none
attr source  sentPacketToLowerLayer
vector 274  CAIN.ueD2DTx[2].nic.mac  receivedPacketFromLowerLayer:vector(packetBytes)  ETV
attr interpolationmode  none
attr source  receivedPacketFromLowerLayer
vector 1501  CAIN.ueD2DTx[3].tcp  tcpRcvQueueBytes  ETV
vector 1488  CAIN.ueD2DTx[3].tcp  "advertised window"  ETV
vector 1487  CAIN.ueD2DTx[3].tcp  "receive window"  ETV
vector 1490  CAIN.ueD2DTx[3].tcp  "sent ack"  ETV
vector 301  CAIN.ueD2DTx[3].nic.pdcpRrc  receivedPacketFromUpperLayer:vector(packetBytes)  ETV
attr interpolationmode  none
attr source  receivedPacketFromUpperLayer
vector 304  CAIN.ueD2DTx[3].nic.pdcpRrc  sentPacketToLowerLayer:vector(packetBytes)  ETV
attr interpolationmode  none
attr source  sentPacketToLowerLayer
vector 305  CAIN.ueD2DTx[3].nic.mac  receivedPacketFromUpperLayer:vector(packetBytes)  ETV
attr interpolationmode  none
attr source  receivedPacketFromUpperLayer
vector 308  CAIN.ueD2DTx[3].nic.mac  sentPacketToLowerLayer:vector(packetBytes)  ETV
attr interpolationmode  none
attr source  sentPacketToLowerLayer
vector 690  CAIN.ueD2DTx[15].nic.mac  receivedPacketFromLowerLayer:vector(packetBytes)  ETV
attr interpolationmode  none
attr source  receivedPacketFromLowerLayer
vector 306  CAIN.ueD2DTx[3].nic.mac  receivedPacketFromLowerLayer:vector(packetBytes)  ETV
attr interpolationmode  none
attr source  receivedPacketFromLowerLayer
vector 1525  CAIN.ueD2DTx[8].tcp  tcpRcvQueueBytes  ETV
vector 1512  CAIN.ueD2DTx[8].tcp  "advertised window"  ETV
vector 1511  CAIN.ueD2DTx[8].tcp  "receive window"  ETV
vector 1514  CAIN.ueD2DTx[8].tcp  "sent ack"  ETV
vector 461  CAIN.ueD2DTx[8].nic.pdcpRrc  receivedPacketFromUpperLayer:vector(packetBytes)  ETV
attr interpolationmode  none
attr source  receivedPacketFromUpperLayer
vector 464  CAIN.ueD2DTx[8].nic.pdcpRrc  sentPacketToLowerLayer:vector(packetBytes)  ETV
attr interpolationmode  none
attr source  sentPacketToLowerLayer
vector 465  CAIN.ueD2DTx[8].nic.mac  receivedPacketFromUpperLayer:vector(packetBytes)  ETV
attr interpolationmode  none
attr source  receivedPacketFromUpperLayer
vector 468  CAIN.ueD2DTx[8].nic.mac  sentPacketToLowerLayer:vector(packetBytes)  ETV
attr interpolationmode  none
attr source  sentPacketToLowerLayer
vector 466  CAIN.ueD2DTx[8].nic.mac  receivedPacketFromLowerLayer:vector(packetBytes)  ETV
attr interpolationmode  none
attr source  receivedPacketFromLowerLayer
vector 467  CAIN.ueD2DTx[8].nic.mac  sentPacketToUpperLayer:vector(packetBytes)  ETV
attr interpolationmode  none
attr source  sentPacketToUpperLayer
vector 1549  CAIN.ueD2DTx[11].tcp  tcpRcvQueueBytes  ETV
vector 1536  CAIN.ueD2DTx[11].tcp  "advertised window"  ETV
vector 1535  CAIN.ueD2DTx[11].tcp  "receive window"  ETV
vector 1538  CAIN.ueD2DTx[11].tcp  "sent ack"  ETV
vector 557  CAIN.ueD2DTx[11].nic.pdcpRrc  receivedPacketFromUpperLayer:vector(packetBytes)  ETV
attr interpolationmode  none
attr source  receivedPacketFromUpperLayer
vector 560  CAIN.ueD2DTx[11].nic.pdcpRrc  sentPacketToLowerLayer:vector(packetBytes)  ETV
attr interpolationmode  none
attr source  sentPacketToLowerLayer
vector 561  CAIN.ueD2DTx[11].nic.mac  receivedPacketFromUpperLayer:vector(packetBytes)  ETV
attr interpolationmode  none
attr source  receivedPacketFromUpperLayer
vector 564  CAIN.ueD2DTx[11].nic.mac  sentPacketToLowerLayer:vector(packetBytes)  ETV
attr interpolationmode  none
attr source  sentPacketToLowerLayer
vector 562  CAIN.ueD2DTx[11].nic.mac  receivedPacketFromLowerLayer:vector(packetBytes)  ETV
attr interpolationmode  none
attr source  receivedPacketFromLowerLayer
vector 1573  CAIN.ueD2DTx[7].tcp  tcpRcvQueueBytes  ETV
vector 1560  CAIN.ueD2DTx[7].tcp  "advertised window"  ETV
vector 1559  CAIN.ueD2DTx[7].tcp  "receive window"  ETV
vector 1562  CAIN.ueD2DTx[7].tcp  "sent ack"  ETV
vector 429  CAIN.ueD2DTx[7].nic.pdcpRrc  receivedPacketFromUpperLayer:vector(packetBytes)  ETV
attr interpolationmode  none
attr source  receivedPacketFromUpperLayer
vector 432  CAIN.ueD2DTx[7].nic.pdcpRrc  sentPacketToLowerLayer:vector(packetBytes)  ETV
attr interpolationmode  none
attr source  sentPacketToLowerLayer
vector 433  CAIN.ueD2DTx[7].nic.mac  receivedPacketFromUpperLayer:vector(packetBytes)  ETV
attr interpolationmode  none
attr source  receivedPacketFromUpperLayer
vector 436  CAIN.ueD2DTx[7].nic.mac  sentPacketToLowerLayer:vector(packetBytes)  ETV
attr interpolationmode  none
attr source  sentPacketToLowerLayer
vector 1301  CAIN.eNodeB1.sctp  "SendQueue of Association 5"  ETV
vector 1065  CAIN.eNodeB1.sctp  "TSN Sent 5:10.0.5.1"  ETV
vector 1072  CAIN.eNodeB1.sctp  "Outstanding Bytes 5:10.0.5.1"  ETV
vector 870  CAIN.eNodeB1.sctp  "Outstanding Bytes 4:Total"  ETV
vector 1071  CAIN.eNodeB1.sctp  "Queued Sent Bytes 5:10.0.5.1"  ETV
vector 869  CAIN.eNodeB1.sctp  "Queued Sent Bytes 4:Total"  ETV
vector 914  CAIN.eNodeB.sctp  "TSN Received 1:10.0.5.2"  ETV
vector 890  CAIN.eNodeB.sctp  "Queued Received Bytes 1:Total"  ETV
vector 886  CAIN.eNodeB.sctp  "Advertised Receiver Window 1"  ETV
vector 895  CAIN.eNodeB.sctp  "Number of Total Gap Blocks Stored 1"  ETV
vector 896  CAIN.eNodeB.sctp  "Number of Revokable Gap Blocks Stored 1"  ETV
vector 897  CAIN.eNodeB.sctp  "Number of Non-Revokable Gap Blocks Stored 1"  ETV
vector 898  CAIN.eNodeB.sctp  "Number of Duplicate TSNs Stored 1"  ETV
vector 902  CAIN.eNodeB.sctp  "Length of SACK Sent 1"  ETV
vector 899  CAIN.eNodeB.sctp  "Number of Revokable Gap Blocks Sent 1"  ETV
vector 900  CAIN.eNodeB.sctp  "Number of Non-Revokable Gap Blocks Sent 1"  ETV
vector 901  CAIN.eNodeB.sctp  "Number of Duplicate TSNs Sent 1"  ETV
vector 906  CAIN.eNodeB.sctp  "End to End Delay of Association 1"  ETV
vector 141  CAIN.eNodeB.x2App[0].client  rcvdPk:vector(packetBytes)  ETV
attr interpolationmode  none
attr source  rcvdPk
attr title  "packets received, vector(packetBytes)"
vector 1300  CAIN.eNodeB1.sctp  "Number of Gap Blocks in Last SACK of Association 5"  ETV
vector 871  CAIN.eNodeB1.sctp  "Number of Revokable Gap Blocks in SACK 4"  ETV
vector 872  CAIN.eNodeB1.sctp  "Number of Non-Revokable Gap Blocks in SACK 4"  ETV
vector 1082  CAIN.eNodeB1.sctp  "TSN Acked CumAck 5:10.0.5.1"  ETV
vector 1048  CAIN.eNodeB1.sctp  "Number of Gap Acked Chunks in Last SACK 5:10.0.2.2"  ETV
vector 1049  CAIN.eNodeB1.sctp  "Number of Non-Revokable Gap Acked Chunks in Last SACK 5:10.0.2.2"  ETV
vector 1050  CAIN.eNodeB1.sctp  "Number of Gap Missed Chunks in Last SACK 5:10.0.2.2"  ETV
vector 1021  CAIN.eNodeB1.sctp  "Number of Gap Acked Chunks in Last SACK 5:10.0.4.1"  ETV
vector 1022  CAIN.eNodeB1.sctp  "Number of Non-Revokable Gap Acked Chunks in Last SACK 5:10.0.4.1"  ETV
vector 1023  CAIN.eNodeB1.sctp  "Number of Gap Missed Chunks in Last SACK 5:10.0.4.1"  ETV
vector 1075  CAIN.eNodeB1.sctp  "Number of Gap Acked Chunks in Last SACK 5:10.0.5.1"  ETV
vector 1076  CAIN.eNodeB1.sctp  "Number of Non-Revokable Gap Acked Chunks in Last SACK 5:10.0.5.1"  ETV
vector 1077  CAIN.eNodeB1.sctp  "Number of Gap Missed Chunks in Last SACK 5:10.0.5.1"  ETV
vector 881  CAIN.eNodeB1.sctp  "Arwnd in Last SACK 4"  ETV
vector 1084  CAIN.eNodeB1.sctp  "TSN PseudoCumAck 5:10.0.5.1"  ETV
vector 1085  CAIN.eNodeB1.sctp  "TSN RTXPseudoCumAck 5:10.0.5.1"  ETV
vector 1078  CAIN.eNodeB1.sctp  "Partial Bytes Acked 5:10.0.5.1"  ETV
vector 1597  CAIN.ueD2DTx[4].tcp  tcpRcvQueueBytes  ETV
vector 1584  CAIN.ueD2DTx[4].tcp  "advertised window"  ETV
vector 1583  CAIN.ueD2DTx[4].tcp  "receive window"  ETV
vector 1586  CAIN.ueD2DTx[4].tcp  "sent ack"  ETV
vector 333  CAIN.ueD2DTx[4].nic.pdcpRrc  receivedPacketFromUpperLayer:vector(packetBytes)  ETV
attr interpolationmode  none
attr source  receivedPacketFromUpperLayer
vector 336  CAIN.ueD2DTx[4].nic.pdcpRrc  sentPacketToLowerLayer:vector(packetBytes)  ETV
attr interpolationmode  none
attr source  sentPacketToLowerLayer
vector 337  CAIN.ueD2DTx[4].nic.mac  receivedPacketFromUpperLayer:vector(packetBytes)  ETV
attr interpolationmode  none
attr source  receivedPacketFromUpperLayer
vector 340  CAIN.ueD2DTx[4].nic.mac  sentPacketToLowerLayer:vector(packetBytes)  ETV
attr interpolationmode  none
attr source  sentPacketToLowerLayer
vector 338  CAIN.ueD2DTx[4].nic.mac  receivedPacketFromLowerLayer:vector(packetBytes)  ETV
attr interpolationmode  none
attr source  receivedPacketFromLowerLayer
vector 339  CAIN.ueD2DTx[4].nic.mac  sentPacketToUpperLayer:vector(packetBytes)  ETV
attr interpolationmode  none
attr source  sentPacketToUpperLayer
vector 154  CAIN.eNodeB1.nic.mac  receivedPacketFromLowerLayer:vector(packetBytes)  ETV
attr interpolationmode  none
attr source  receivedPacketFromLowerLayer
vector 347  CAIN.ueD2DTx[4].nic.mac  CainHopMessageSent:vector  ETV
attr interpolationmode  none
attr title  "# of Sent CAIN hop message, vector"
vector 1621  CAIN.ueD2DTx[16].tcp  tcpRcvQueueBytes  ETV
vector 1608  CAIN.ueD2DTx[16].tcp  "advertised window"  ETV
vector 1607  CAIN.ueD2DTx[16].tcp  "receive window"  ETV
vector 1610  CAIN.ueD2DTx[16].tcp  "sent ack"  ETV
vector 717  CAIN.ueD2DTx[16].nic.pdcpRrc  receivedPacketFromUpperLayer:vector(packetBytes)  ETV
attr interpolationmode  none
attr source  receivedPacketFromUpperLayer
vector 720  CAIN.ueD2DTx[16].nic.pdcpRrc  sentPacketToLowerLayer:vector(packetBytes)  ETV
attr interpolationmode  none
attr source  sentPacketToLowerLayer
vector 721  CAIN.ueD2DTx[16].nic.mac  receivedPacketFromUpperLayer:vector(packetBytes)  ETV
attr interpolationmode  none
attr source  receivedPacketFromUpperLayer
vector 603  CAIN.ueD2DTx[12].nic.mac  CainHopMessageSent:vector  ETV
attr interpolationmode  none
attr title  "# of Sent CAIN hop message, vector"
vector 724  CAIN.ueD2DTx[16].nic.mac  sentPacketToLowerLayer:vector(packetBytes)  ETV
attr interpolationmode  none
attr source  sentPacketToLowerLayer
vector 1645  CAIN.ueD2DTx[1].tcp  tcpRcvQueueBytes  ETV
vector 1632  CAIN.ueD2DTx[1].tcp  "advertised window"  ETV
vector 1631  CAIN.ueD2DTx[1].tcp  "receive window"  ETV
vector 1634  CAIN.ueD2DTx[1].tcp  "sent ack"  ETV
vector 237  CAIN.ueD2DTx[1].nic.pdcpRrc  receivedPacketFromUpperLayer:vector(packetBytes)  ETV
attr interpolationmode  none
attr source  receivedPacketFromUpperLayer
vector 240  CAIN.ueD2DTx[1].nic.pdcpRrc  sentPacketToLowerLayer:vector(packetBytes)  ETV
attr interpolationmode  none
attr source  sentPacketToLowerLayer
vector 241  CAIN.ueD2DTx[1].nic.mac  receivedPacketFromUpperLayer:vector(packetBytes)  ETV
attr interpolationmode  none
attr source  receivedPacketFromUpperLayer
vector 244  CAIN.ueD2DTx[1].nic.mac  sentPacketToLowerLayer:vector(packetBytes)  ETV
attr interpolationmode  none
attr source  sentPacketToLowerLayer
vector 699  CAIN.ueD2DTx[15].nic.mac  CainHopMessageSent:vector  ETV
attr interpolationmode  none
attr title  "# of Sent CAIN hop message, vector"
vector 169  CAIN.eNodeB1.nic.mac  racpkt:vector  ETV
attr interpolationmode  none
attr title  "eNB received racpkt message, vector"
vector 170  CAIN.eNodeB1.nic.mac  racDistanceSignal:vector  ETV
attr interpolationmode  none
attr title  "Rac distance to enb, vector"
vector 171  CAIN.eNodeB1.nic.mac  racServedDevsSignal:vector  ETV
attr interpolationmode  none
attr title  "# of devices served on rac arriavall, vector"
vector 156  CAIN.eNodeB1.nic.mac  sentPacketToLowerLayer:vector(packetBytes)  ETV
attr interpolationmode  none
attr source  sentPacketToLowerLayer
vector 722  CAIN.ueD2DTx[16].nic.mac  receivedPacketFromLowerLayer:vector(packetBytes)  ETV
attr interpolationmode  none
attr source  receivedPacketFromLowerLayer
vector 795  CAIN.ueD2DTx[18].nic.mac  CainHopMessageSent:vector  ETV
attr interpolationmode  none
attr title  "# of Sent CAIN hop message, vector"
vector 242  CAIN.ueD2DTx[1].nic.mac  receivedPacketFromLowerLayer:vector(packetBytes)  ETV
attr interpolationmode  none
attr source  receivedPacketFromLowerLayer
vector 210  CAIN.ueD2DTx[0].nic.mac  receivedPacketFromLowerLayer:vector(packetBytes)  ETV
attr interpolationmode  none
attr source  receivedPacketFromLowerLayer
vector 212  CAIN.ueD2DTx[0].nic.mac  sentPacketToLowerLayer:vector(packetBytes)  ETV
attr interpolationmode  none
attr source  sentPacketToLowerLayer
vector 1669  CAIN.ueD2DTx[9].tcp  tcpRcvQueueBytes  ETV
vector 1656  CAIN.ueD2DTx[9].tcp  "advertised window"  ETV
vector 1655  CAIN.ueD2DTx[9].tcp  "receive window"  ETV
vector 1658  CAIN.ueD2DTx[9].tcp  "sent ack"  ETV
vector 493  CAIN.ueD2DTx[9].nic.pdcpRrc  receivedPacketFromUpperLayer:vector(packetBytes)  ETV
attr interpolationmode  none
attr source  receivedPacketFromUpperLayer
vector 496  CAIN.ueD2DTx[9].nic.pdcpRrc  sentPacketToLowerLayer:vector(packetBytes)  ETV
attr interpolationmode  none
attr source  sentPacketToLowerLayer
vector 497  CAIN.ueD2DTx[9].nic.mac  receivedPacketFromUpperLayer:vector(packetBytes)  ETV
attr interpolationmode  none
attr source  receivedPacketFromUpperLayer
vector 507  CAIN.ueD2DTx[9].nic.mac  CainHopMessageSent:vector  ETV
attr interpolationmode  none
attr title  "# of Sent CAIN hop message, vector"
vector 500  CAIN.ueD2DTx[9].nic.mac  sentPacketToLowerLayer:vector(packetBytes)  ETV
attr interpolationmode  none
attr source  sentPacketToLowerLayer
vector 1693  CAIN.ueD2DTx[10].tcp  tcpRcvQueueBytes  ETV
vector 1680  CAIN.ueD2DTx[10].tcp  "advertised window"  ETV
vector 1679  CAIN.ueD2DTx[10].tcp  "receive window"  ETV
vector 1682  CAIN.ueD2DTx[10].tcp  "sent ack"  ETV
vector 525  CAIN.ueD2DTx[10].nic.pdcpRrc  receivedPacketFromUpperLayer:vector(packetBytes)  ETV
attr interpolationmode  none
attr source  receivedPacketFromUpperLayer
vector 528  CAIN.ueD2DTx[10].nic.pdcpRrc  sentPacketToLowerLayer:vector(packetBytes)  ETV
attr interpolationmode  none
attr source  sentPacketToLowerLayer
vector 529  CAIN.ueD2DTx[10].nic.mac  receivedPacketFromUpperLayer:vector(packetBytes)  ETV
attr interpolationmode  none
attr source  receivedPacketFromUpperLayer
vector 532  CAIN.ueD2DTx[10].nic.mac  sentPacketToLowerLayer:vector(packetBytes)  ETV
attr interpolationmode  none
attr source  sentPacketToLowerLayer
vector 530  CAIN.ueD2DTx[10].nic.mac  receivedPacketFromLowerLayer:vector(packetBytes)  ETV
attr interpolationmode  none
attr source  receivedPacketFromLowerLayer
vector 1717  CAIN.ueD2DTx[17].tcp  tcpRcvQueueBytes  ETV
vector 1704  CAIN.ueD2DTx[17].tcp  "advertised window"  ETV
vector 1703  CAIN.ueD2DTx[17].tcp  "receive window"  ETV
vector 1706  CAIN.ueD2DTx[17].tcp  "sent ack"  ETV
vector 749  CAIN.ueD2DTx[17].nic.pdcpRrc  receivedPacketFromUpperLayer:vector(packetBytes)  ETV
attr interpolationmode  none
attr source  receivedPacketFromUpperLayer
vector 752  CAIN.ueD2DTx[17].nic.pdcpRrc  sentPacketToLowerLayer:vector(packetBytes)  ETV
attr interpolationmode  none
attr source  sentPacketToLowerLayer
vector 753  CAIN.ueD2DTx[17].nic.mac  receivedPacketFromUpperLayer:vector(packetBytes)  ETV
attr interpolationmode  none
attr source  receivedPacketFromUpperLayer
vector 1741  CAIN.ueD2DTx[0].tcp  tcpRcvQueueBytes  ETV
vector 1728  CAIN.ueD2DTx[0].tcp  "advertised window"  ETV
vector 1727  CAIN.ueD2DTx[0].tcp  "receive window"  ETV
vector 1730  CAIN.ueD2DTx[0].tcp  "sent ack"  ETV
vector 205  CAIN.ueD2DTx[0].nic.pdcpRrc  receivedPacketFromUpperLayer:vector(packetBytes)  ETV
attr interpolationmode  none
attr source  receivedPacketFromUpperLayer
vector 208  CAIN.ueD2DTx[0].nic.pdcpRrc  sentPacketToLowerLayer:vector(packetBytes)  ETV
attr interpolationmode  none
attr source  sentPacketToLowerLayer
vector 209  CAIN.ueD2DTx[0].nic.mac  receivedPacketFromUpperLayer:vector(packetBytes)  ETV
attr interpolationmode  none
attr source  receivedPacketFromUpperLayer
vector 763  CAIN.ueD2DTx[17].nic.mac  CainHopMessageSent:vector  ETV
attr interpolationmode  none
attr title  "# of Sent CAIN hop message, vector"
vector 756  CAIN.ueD2DTx[17].nic.mac  sentPacketToLowerLayer:vector(packetBytes)  ETV
attr interpolationmode  none
attr source  sentPacketToLowerLayer
vector 1765  CAIN.ueD2DTx[19].tcp  tcpRcvQueueBytes  ETV
vector 1752  CAIN.ueD2DTx[19].tcp  "advertised window"  ETV
vector 1751  CAIN.ueD2DTx[19].tcp  "receive window"  ETV
vector 1754  CAIN.ueD2DTx[19].tcp  "sent ack"  ETV
vector 813  CAIN.ueD2DTx[19].nic.pdcpRrc  receivedPacketFromUpperLayer:vector(packetBytes)  ETV
attr interpolationmode  none
attr source  receivedPacketFromUpperLayer
vector 816  CAIN.ueD2DTx[19].nic.pdcpRrc  sentPacketToLowerLayer:vector(packetBytes)  ETV
attr interpolationmode  none
attr source  sentPacketToLowerLayer
vector 817  CAIN.ueD2DTx[19].nic.mac  receivedPacketFromUpperLayer:vector(packetBytes)  ETV
attr interpolationmode  none
attr source  receivedPacketFromUpperLayer
vector 1789  CAIN.ueD2DTx[5].tcp  tcpRcvQueueBytes  ETV
vector 1776  CAIN.ueD2DTx[5].tcp  "advertised window"  ETV
vector 1775  CAIN.ueD2DTx[5].tcp  "receive window"  ETV
vector 1778  CAIN.ueD2DTx[5].tcp  "sent ack"  ETV
vector 365  CAIN.ueD2DTx[5].nic.pdcpRrc  receivedPacketFromUpperLayer:vector(packetBytes)  ETV
attr interpolationmode  none
attr source  receivedPacketFromUpperLayer
vector 368  CAIN.ueD2DTx[5].nic.pdcpRrc  sentPacketToLowerLayer:vector(packetBytes)  ETV
attr interpolationmode  none
attr source  sentPacketToLowerLayer
vector 369  CAIN.ueD2DTx[5].nic.mac  receivedPacketFromUpperLayer:vector(packetBytes)  ETV
attr interpolationmode  none
attr source  receivedPacketFromUpperLayer
vector 379  CAIN.ueD2DTx[5].nic.mac  CainHopMessageSent:vector  ETV
attr interpolationmode  none
attr title  "# of Sent CAIN hop message, vector"
vector 372  CAIN.ueD2DTx[5].nic.mac  sentPacketToLowerLayer:vector(packetBytes)  ETV
attr interpolationmode  none
attr source  sentPacketToLowerLayer
vector 827  CAIN.ueD2DTx[19].nic.mac  CainHopMessageSent:vector  ETV
attr interpolationmode  none
attr title  "# of Sent CAIN hop message, vector"
vector 820  CAIN.ueD2DTx[19].nic.mac  sentPacketToLowerLayer:vector(packetBytes)  ETV
attr interpolationmode  none
attr source  sentPacketToLowerLayer
vector 635  CAIN.ueD2DTx[13].nic.mac  CainHopMessageSent:vector  ETV
attr interpolationmode  none
attr title  "# of Sent CAIN hop message, vector"
vector 667  CAIN.ueD2DTx[14].nic.mac  CainHopMessageSent:vector  ETV
attr interpolationmode  none
attr title  "# of Sent CAIN hop message, vector"
vector 403  CAIN.ueD2DTx[6].nic.mac  sentPacketToUpperLayer:vector(packetBytes)  ETV
attr interpolationmode  none
attr source  sentPacketToUpperLayer
vector 275  CAIN.ueD2DTx[2].nic.mac  sentPacketToUpperLayer:vector(packetBytes)  ETV
attr interpolationmode  none
attr source  sentPacketToUpperLayer
vector 314  CAIN.ueD2DTx[3].nic.mac  CainMessageSent:vector  ETV
attr interpolationmode  none
attr title  "# of Sent CAIN message, vector"
vector 474  CAIN.ueD2DTx[8].nic.mac  CainMessageSent:vector  ETV
attr interpolationmode  none
attr title  "# of Sent CAIN message, vector"
vector 571  CAIN.ueD2DTx[11].nic.mac  CainHopMessageSent:vector  ETV
attr interpolationmode  none
attr title  "# of Sent CAIN hop message, vector"
vector 754  CAIN.ueD2DTx[17].nic.mac  receivedPacketFromLowerLayer:vector(packetBytes)  ETV
attr interpolationmode  none
attr source  receivedPacketFromLowerLayer
vector 434  CAIN.ueD2DTx[7].nic.mac  receivedPacketFromLowerLayer:vector(packetBytes)  ETV
attr interpolationmode  none
attr source  receivedPacketFromLowerLayer
vector 435  CAIN.ueD2DTx[7].nic.mac  sentPacketToUpperLayer:vector(packetBytes)  ETV
attr interpolationmode  none
attr source  sentPacketToUpperLayer
vector 723  CAIN.ueD2DTx[16].nic.mac  sentPacketToUpperLayer:vector(packetBytes)  ETV
attr interpolationmode  none
attr source  sentPacketToUpperLayer
vector 243  CAIN.ueD2DTx[1].nic.mac  sentPacketToUpperLayer:vector(packetBytes)  ETV
attr interpolationmode  none
attr source  sentPacketToUpperLayer
vector 531  CAIN.ueD2DTx[10].nic.mac  sentPacketToUpperLayer:vector(packetBytes)  ETV
attr interpolationmode  none
attr source  sentPacketToUpperLayer
vector 173  CAIN.eNodeB1.nic.phy  averageCqiUlvect:vector  ETV
attr source  averageCqiUlvect
attr title  "Average Cqi reported in UL, vector"
attr unit  cqi
vector 475  CAIN.ueD2DTx[8].nic.mac  CainHopMessageSent:vector  ETV
attr interpolationmode  none
attr title  "# of Sent CAIN hop message, vector"
vector 218  CAIN.ueD2DTx[0].nic.mac  CainMessageSent:vector  ETV
attr interpolationmode  none
attr title  "# of Sent CAIN message, vector"
1108	150	0.0000001228	0
1219	235	0.0000006304	65535
1220	235	0.0000006304	8940
1221	235	0.0000006304	0.3725
1217	235	0.0000006304	3
1224	235	0.0000006304	1
1236	163	0.0000003096	0
1192	235	0.0000006304	65535
1193	235	0.0000006304	8940
1194	235	0.0000006304	0.3725
1190	235	0.0000006304	3
1197	235	0.0000006304	1
1209	163	0.0000003096	0
910	235	0.0000006304	65535
911	235	0.0000006304	8940
912	235	0.0000006304	0.3725
908	235	0.0000006304	3
908	302	0.0000008564	1
909	302	0.0000008564	2.26e-07
914	3239	0.0570000972	2000
914	3258	0.0570004804	2001
914	3258	0.0570004804	2002
914	3258	0.0570004804	2003
914	3258	0.0570004804	2004
914	3258	0.0570004804	2005
914	3258	0.0570004804	2006
914	3258	0.0570004804	2007
914	3258	0.0570004804	2008
914	3258	0.0570004804	2009
914	3258	0.0570004804	2010
914	3258	0.0570004804	2011
914	3258	0.0570004804	2012
914	3258	0.0570004804	2013
914	13958	0.2570024476	2014
914	13958	0.2570024476	2015
914	13958	0.2570024476	2016
914	13958	0.2570024476	2017
914	13958	0.2570024476	2018
914	13958	0.2570024476	2019
914	13958	0.2570024476	2020
914	13958	0.2570024476	2021
914	13958	0.2570024476	2022
914	13958	0.2570024476	2023
914	13958	0.2570024476	2024
914	13958	0.2570024476	2025
914	13958	0.2570024476	2026
914	13958	0.2570024476	2027
914	13958	0.2570024476	2028
914	13958	0.2570024476	2029
914	13958	0.2570024476	2030
914	13958	0.2570024476	2031
914	13958	0.2570024476	2032
914	13958	0.2570024476	2033
914	13958	0.2570024476	2034
914	13958	0.2570024476	2035
914	13958	0.2570024476	2036
914	13958	0.2570024476	2037
914	13958	0.2570024476	2038
914	13958	0.2570024476	2039
914	13958	0.2570024476	2040
914	13958	0.2570024476	2041
914	13958	0.2570024476	2042
914	13958	0.2570024476	2043
914	13958	0.2570024476	2044
914	13958	0.2570024476	2045
914	13958	0.2570024476	2046
914	13958	0.2570024476	2047
914	13958	0.2570024476	2048
914	13958	0.2570024476	2049
914	13958	0.2570024476	2050
914	13958	0.2570024476	2051
914	13958	0.2570024476	2052
914	13958	0.2570024476	2053
914	13958	0.2570024476	2054
914	13958	0.2570024476	2055
914	13958	0.2570024476	2056
914	13958	0.2570024476	2057
914	13958	0.2570024476	2058
914	13958	0.2570024476	2059
914	13958	0.2570024476	2060
914	13958	0.2570024476	2061
914	13958	0.2570024476	2062
914	13958	0.2570024476	2063
914	13958	0.2570024476	2064
914	13958	0.2570024476	2065
914	13958	0.2570024476	2066
914	13958	0.2570024476	2067
914	13958	0.2570024476	2068
914	13958	0.2570024476	2069
914	13958	0.2570024476	2070
914	13958	0.2570024476	2071
914	13958	0.2570024476	2072
914	13958	0.2570024476	2073
914	13958	0.2570024476	2074
914	13958	0.2570024476	2075
914	13958	0.2570024476	2076
914	13958	0.2570024476	2077
914	13958	0.2570024476	2078
914	13958	0.2570024476	2079
914	13958	0.2570024476	2080
914	13958	0.2570024476	2081
914	13958	0.2570024476	2082
914	13958	0.2570024476	2083
914	13958	0.2570024476	2084
914	13958	0.2570024476	2085
914	13958	0.2570024476	2086
914	13958	0.2570024476	2087
914	13958	0.2570024476	2088
914	13958	0.2570024476	2089
914	13958	0.2570024476	2090
914	13958	0.2570024476	2091
914	13958	0.2570024476	2092
914	13958	0.2570024476	2093
914	13958	0.2570024476	2094
914	13958	0.2570024476	2095
914	13958	0.2570024476	2096
914	13958	0.2570024476	2097
914	13958	0.2570024476	2098
914	13958	0.2570024476	2099
914	13958	0.2570024476	2100
914	13958	0.2570024476	2101
914	13958	0.2570024476	2102
914	13958	0.2570024476	2103
914	13958	0.2570024476	2104
914	13958	0.2570024476	2105
914	13958	0.2570024476	2106
914	13958	0.2570024476	2107
914	13958	0.2570024476	2108
914	13958	0.2570024476	2109
914	13958	0.2570024476	2110
914	13958	0.2570024476	2111
914	13958	0.2570024476	2112
914	13958	0.2570024476	2113
914	13958	0.2570024476	2114
914	13958	0.2570024476	2115
914	13958	0.2570024476	2116
914	13958	0.2570024476	2117
914	13958	0.2570024476	2118
914	13958	0.2570024476	2119
914	13958	0.2570024476	2120
914	13958	0.2570024476	2121
914	13958	0.2570024476	2122
914	13958	0.2570024476	2123
914	13958	0.2570024476	2124
914	13958	0.2570024476	2125
917	207	0.000000552	1
917	221	0.000000596	2
916	207	0.000000552	1
916	221	0.000000596	2
918	302	0.0000008564	1
918	308	0.0000009004	2
927	131	0	0
886	3239	0.0570000972	65533
886	13944	0.2570004804	65535
886	24151	0.4570024476	65535
890	3239	0.0570000972	2
890	3242	0.0570000972	2
890	3272	0.0570004804	26
890	3273	0.0570004804	0
890	3274	0.0570004804	0
890	3275	0.0570004804	0
890	3276	0.0570004804	0
890	3277	0.0570004804	0
890	3278	0.0570004804	0
890	3279	0.0570004804	0
890	3280	0.0570004804	0
890	3281	0.0570004804	0
890	3282	0.0570004804	0
890	3283	0.0570004804	0
890	3284	0.0570004804	0
890	13944	0.2570004804	0
890	14071	0.2570024476	224
890	14072	0.2570024476	0
890	14073	0.2570024476	0
890	14074	0.2570024476	0
890	14075	0.2570024476	0
890	14076	0.2570024476	0
890	14077	0.2570024476	0
890	14078	0.2570024476	0
890	14079	0.2570024476	0
890	14080	0.2570024476	0
890	14081	0.2570024476	0
890	14082	0.2570024476	0
890	14083	0.2570024476	0
890	14084	0.2570024476	0
890	14085	0.2570024476	0
890	14086	0.2570024476	0
890	14087	0.2570024476	0
890	14088	0.2570024476	0
890	14089	0.2570024476	0
890	14090	0.2570024476	0
890	14091	0.2570024476	0
890	14092	0.2570024476	0
890	14093	0.2570024476	0
890	14094	0.2570024476	0
890	14095	0.2570024476	0
890	14096	0.2570024476	0
890	14097	0.2570024476	0
890	14098	0.2570024476	0
890	14099	0.2570024476	0
890	14100	0.2570024476	0
890	14101	0.2570024476	0
890	14102	0.2570024476	0
890	14103	0.2570024476	0
890	14104	0.2570024476	0
890	14105	0.2570024476	0
890	14106	0.2570024476	0
890	14107	0.2570024476	0
890	14108	0.2570024476	0
890	14109	0.2570024476	0
890	14110	0.2570024476	0
890	14111	0.2570024476	0
890	14112	0.2570024476	0
890	14113	0.2570024476	0
890	14114	0.2570024476	0
890	14115	0.2570024476	0
890	14116	0.2570024476	0
890	14117	0.2570024476	0
890	14118	0.2570024476	0
890	14119	0.2570024476	0
890	14120	0.2570024476	0
890	14121	0.2570024476	0
890	14122	0.2570024476	0
890	14123	0.2570024476	0
890	14124	0.2570024476	0
890	14125	0.2570024476	0
890	14126	0.2570024476	0
890	14127	0.2570024476	0
890	14128	0.2570024476	0
890	14129	0.2570024476	0
890	14130	0.2570024476	0
890	14131	0.2570024476	0
890	14132	0.2570024476	0
890	14133	0.2570024476	0
890	14134	0.2570024476	0
890	14135	0.2570024476	0
890	14136	0.2570024476	0
890	14137	0.2570024476	0
890	14138	0.2570024476	0
890	14139	0.2570024476	0
890	14140	0.2570024476	0
890	14141	0.2570024476	0
890	14142	0.2570024476	0
890	14143	0.2570024476	0
890	14144	0.2570024476	0
890	14145	0.2570024476	0
890	14146	0.2570024476	0
890	14147	0.2570024476	0
890	14148	0.2570024476	0
890	14149	0.2570024476	0
890	14150	0.2570024476	0
890	14151	0.2570024476	0
890	14152	0.2570024476	0
890	14153	0.2570024476	0
890	14154	0.2570024476	0
890	14155	0.2570024476	0
890	14156	0.2570024476	0
890	14157	0.2570024476	0
890	14158	0.2570024476	0
890	14159	0.2570024476	0
890	14160	0.2570024476	0
890	14161	0.2570024476	0
890	14162	0.2570024476	0
890	14163	0.2570024476	0
890	14164	0.2570024476	0
890	14165	0.2570024476	0
890	14166	0.2570024476	0
890	14167	0.2570024476	0
890	14168	0.2570024476	0
890	14169	0.2570024476	0
890	14170	0.2570024476	0
890	14171	0.2570024476	0
890	14172	0.2570024476	0
890	14173	0.2570024476	0
890	14174	0.2570024476	0
890	14175	0.2570024476	0
890	14176	0.2570024476	0
890	14177	0.2570024476	0
890	14178	0.2570024476	0
890	14179	0.2570024476	0
890	14180	0.2570024476	0
890	14181	0.2570024476	0
890	14182	0.2570024476	0
890	24151	0.4570024476	0
895	3239	0.0570000972	0
895	13944	0.2570004804	0
895	24151	0.4570024476	0
896	3239	0.0570000972	0
896	13944	0.2570004804	0
896	24151	0.4570024476	0
897	3239	0.0570000972	0
897	13944	0.2570004804	0
897	24151	0.4570024476	0
898	3239	0.0570000972	0
898	13944	0.2570004804	0
898	24151	0.4570024476	0
899	3239	0.0570000972	0
899	13944	0.2570004804	0
899	24151	0.4570024476	0
900	3239	0.0570000972	0
900	13944	0.2570004804	0
900	24151	0.4570024476	0
901	3239	0.0570000972	0
901	13944	0.2570004804	0
901	24151	0.4570024476	0
902	3239	0.0570000972	16
902	13944	0.2570004804	16
902	24151	0.4570024476	16
904	163	0.0000003096	65535
906	3242	0.0570000972	9.72e-08
906	3272	0.0570004804	2.892e-07
906	3272	0.0570004804	2.892e-07
906	3272	0.0570004804	2.892e-07
906	3272	0.0570004804	2.892e-07
906	3272	0.0570004804	2.892e-07
906	3272	0.0570004804	2.892e-07
906	3272	0.0570004804	2.892e-07
906	3272	0.0570004804	2.892e-07
906	3272	0.0570004804	2.892e-07
906	3272	0.0570004804	2.892e-07
906	3272	0.0570004804	2.892e-07
906	3272	0.0570004804	2.892e-07
906	3272	0.0570004804	2.892e-07
906	14071	0.2570024476	1.8732e-06
906	14071	0.2570024476	1.8732e-06
906	14071	0.2570024476	1.8732e-06
906	14071	0.2570024476	1.8732e-06
906	14071	0.2570024476	1.8732e-06
906	14071	0.2570024476	1.8732e-06
906	14071	0.2570024476	1.8732e-06
906	14071	0.2570024476	1.8732e-06
906	14071	0.2570024476	1.8732e-06
906	14071	0.2570024476	1.8732e-06
906	14071	0.2570024476	1.8732e-06
906	14071	0.2570024476	1.8732e-06
906	14071	0.2570024476	1.8732e-06
906	14071	0.2570024476	1.8732e-06
906	14071	0.2570024476	1.8732e-06
906	14071	0.2570024476	1.8732e-06
906	14071	0.2570024476	1.8732e-06
906	14071	0.2570024476	1.8732e-06
906	14071	0.2570024476	1.8732e-06
906	14071	0.2570024476	1.8732e-06
906	14071	0.2570024476	1.8732e-06
906	14071	0.2570024476	1.8732e-06
906	14071	0.2570024476	1.8732e-06
906	14071	0.2570024476	1.8732e-06
906	14071	0.2570024476	1.8732e-06
906	14071	0.2570024476	1.8732e-06
906	14071	0.2570024476	1.8732e-06
906	14071	0.2570024476	1.8732e-06
906	14071	0.2570024476	1.8732e-06
906	14071	0.2570024476	1.8732e-06
906	14071	0.2570024476	1.8732e-06
906	14071	0.2570024476	1.8732e-06
906	14071	0.2570024476	1.8732e-06
906	14071	0.2570024476	1.8732e-06
906	14071	0.2570024476	1.8732e-06
906	14071	0.2570024476	1.8732e-06
906	14071	0.2570024476	1.8732e-06
906	14071	0.2570024476	1.8732e-06
906	14071	0.2570024476	1.8732e-06
906	14071	0.2570024476	1.8732e-06
906	14071	0.2570024476	1.8732e-06
906	14071	0.2570024476	1.8732e-06
906	14071	0.2570024476	1.8732e-06
906	14071	0.2570024476	1.8732e-06
906	14071	0.2570024476	1.8732e-06
906	14071	0.2570024476	1.8732e-06
906	14071	0.2570024476	1.8732e-06
906	14071	0.2570024476	1.8732e-06
906	14071	0.2570024476	1.8732e-06
906	14071	0.2570024476	1.8732e-06
906	14071	0.2570024476	1.8732e-06
906	14071	0.2570024476	1.8732e-06
906	14071	0.2570024476	1.8732e-06
906	14071	0.2570024476	1.8732e-06
906	14071	0.2570024476	1.8732e-06
906	14071	0.2570024476	1.8732e-06
906	14071	0.2570024476	1.8732e-06
906	14071	0.2570024476	1.8732e-06
906	14071	0.2570024476	1.8732e-06
906	14071	0.2570024476	1.8732e-06
906	14071	0.2570024476	1.8732e-06
906	14071	0.2570024476	1.8732e-06
906	14071	0.2570024476	1.8732e-06
906	14071	0.2570024476	1.8732e-06
906	14071	0.2570024476	1.8732e-06
906	14071	0.2570024476	1.8732e-06
906	14071	0.2570024476	1.8732e-06
906	14071	0.2570024476	1.8732e-06
906	14071	0.2570024476	1.8732e-06
906	14071	0.2570024476	1.8732e-06
906	14071	0.2570024476	1.8732e-06
906	14071	0.2570024476	1.8732e-06
906	14071	0.2570024476	1.8732e-06
906	14071	0.2570024476	1.8732e-06
906	14071	0.2570024476	1.8732e-06
906	14071	0.2570024476	1.8732e-06
906	14071	0.2570024476	1.8732e-06
906	14071	0.2570024476	1.8732e-06
906	14071	0.2570024476	1.8732e-06
906	14071	0.2570024476	1.8732e-06
906	14071	0.2570024476	1.8732e-06
906	14071	0.2570024476	1.8732e-06
906	14071	0.2570024476	1.8732e-06
906	14071	0.2570024476	1.8732e-06
906	14071	0.2570024476	1.8732e-06
906	14071	0.2570024476	1.8732e-06
906	14071	0.2570024476	1.8732e-06
906	14071	0.2570024476	1.8732e-06
906	14071	0.2570024476	1.8732e-06
906	14071	0.2570024476	1.8732e-06
906	14071	0.2570024476	1.8732e-06
906	14071	0.2570024476	1.8732e-06
906	14071	0.2570024476	1.8732e-06
906	14071	0.2570024476	1.8732e-06
906	14071	0.2570024476	1.8732e-06
906	14071	0.2570024476	1.8732e-06
906	14071	0.2570024476	1.8732e-06
906	14071	0.2570024476	1.8732e-06
906	14071	0.2570024476	1.8732e-06
906	14071	0.2570024476	1.8732e-06
906	14071	0.2570024476	1.8732e-06
906	14071	0.2570024476	1.8732e-06
906	14071	0.2570024476	1.8732e-06
906	14071	0.2570024476	1.8732e-06
906	14071	0.2570024476	1.8732e-06
906	14071	0.2570024476	1.8732e-06
906	14071	0.2570024476	1.8732e-06
906	14071	0.2570024476	1.8732e-06
906	14071	0.2570024476	1.8732e-06
906	14071	0.2570024476	1.8732e-06
906	14071	0.2570024476	1.8732e-06
906	14071	0.2570024476	1.8732e-06
907	131	0	0
1138	178	0.000000458	65535
1139	178	0.000000458	8940
1140	178	0.000000458	0.3725
1136	178	0.000000458	3
1143	178	0.000000458	1
1151	657	0.0070001912	0
1151	11008	0.2070005744	0
1151	21742	0.4070025416	0
1152	657	0.0070001912	0
1152	11008	0.2070005744	0
1152	21742	0.4070025416	0
1153	657	0.0070001912	0
1153	11008	0.2070005744	0
1153	21742	0.4070025416	0
1155	150	0.0000001228	0
1111	178	0.000000458	65535
1112	178	0.000000458	8940
1113	178	0.000000458	0.3725
1109	178	0.000000458	3
1116	178	0.000000458	1
1124	657	0.0070001912	0
1124	11008	0.2070005744	0
1124	21742	0.4070025416	0
1125	657	0.0070001912	0
1125	11008	0.2070005744	0
1125	21742	0.4070025416	0
1126	657	0.0070001912	0
1126	11008	0.2070005744	0
1126	21742	0.4070025416	0
1128	150	0.0000001228	0
1165	178	0.000000458	65535
1165	60213	1.2070005744	65535
1166	178	0.000000458	8940
1166	60213	1.2070005744	8940
1167	178	0.000000458	0.3725
1167	60213	1.2070005744	23.84
1163	178	0.000000458	3
1163	255	0.0000006744	1
1163	657	0.0070001912	1
1163	11008	0.2070005744	1
1163	21742	0.4070025416	1
1164	255	0.0000006744	2.164e-07
1164	657	0.0070001912	1.912e-07
1164	11008	0.2070005744	0.2000003832
1164	21742	0.4070025416	0.2000019672
1168	601	0.007	2000
1168	657	0.0070001912	2001
1168	657	0.0070001912	2002
1168	657	0.0070001912	2003
1168	657	0.0070001912	2004
1168	657	0.0070001912	2005
1168	657	0.0070001912	2006
1168	657	0.0070001912	2007
1168	657	0.0070001912	2008
1168	657	0.0070001912	2009
1168	657	0.0070001912	2010
1168	657	0.0070001912	2011
1168	657	0.0070001912	2012
1168	657	0.0070001912	2013
1168	11008	0.2070005744	2014
1168	11008	0.2070005744	2015
1168	11008	0.2070005744	2016
1168	11008	0.2070005744	2017
1168	11008	0.2070005744	2018
1168	11008	0.2070005744	2019
1168	11008	0.2070005744	2020
1168	11008	0.2070005744	2021
1168	11008	0.2070005744	2022
1168	11008	0.2070005744	2023
1168	11008	0.2070005744	2024
1168	11008	0.2070005744	2025
1168	11008	0.2070005744	2026
1168	11008	0.2070005744	2027
1168	11008	0.2070005744	2028
1168	11008	0.2070005744	2029
1168	11008	0.2070005744	2030
1168	11008	0.2070005744	2031
1168	11008	0.2070005744	2032
1168	11008	0.2070005744	2033
1168	11008	0.2070005744	2034
1168	11008	0.2070005744	2035
1168	11008	0.2070005744	2036
1168	11008	0.2070005744	2037
1168	11008	0.2070005744	2038
1168	11008	0.2070005744	2039
1168	11008	0.2070005744	2040
1168	11008	0.2070005744	2041
1168	11008	0.2070005744	2042
1168	11008	0.2070005744	2043
1168	11008	0.2070005744	2044
1168	11008	0.2070005744	2045
1168	11008	0.2070005744	2046
1168	11008	0.2070005744	2047
1168	11008	0.2070005744	2048
1168	11008	0.2070005744	2049
1168	11008	0.2070005744	2050
1168	11008	0.2070005744	2051
1168	11008	0.2070005744	2052
1168	11008	0.2070005744	2053
1168	11008	0.2070005744	2054
1168	11008	0.2070005744	2055
1168	11008	0.2070005744	2056
1168	11008	0.2070005744	2057
1168	11008	0.2070005744	2058
1168	11008	0.2070005744	2059
1168	11008	0.2070005744	2060
1168	11008	0.2070005744	2061
1168	11008	0.2070005744	2062
1168	11008	0.2070005744	2063
1168	11008	0.2070005744	2064
1168	11008	0.2070005744	2065
1168	11008	0.2070005744	2066
1168	11008	0.2070005744	2067
1168	11008	0.2070005744	2068
1168	11008	0.2070005744	2069
1168	11008	0.2070005744	2070
1168	11008	0.2070005744	2071
1168	11008	0.2070005744	2072
1168	11008	0.2070005744	2073
1168	11008	0.2070005744	2074
1168	11008	0.2070005744	2075
1168	11008	0.2070005744	2076
1168	11008	0.2070005744	2077
1168	11008	0.2070005744	2078
1168	11008	0.2070005744	2079
1168	11008	0.2070005744	2080
1168	11008	0.2070005744	2081
1168	11008	0.2070005744	2082
1168	11008	0.2070005744	2083
1168	11008	0.2070005744	2084
1168	11008	0.2070005744	2085
1168	11008	0.2070005744	2086
1168	11008	0.2070005744	2087
1168	11008	0.2070005744	2088
1168	11008	0.2070005744	2089
1168	11008	0.2070005744	2090
1168	11008	0.2070005744	2091
1168	11008	0.2070005744	2092
1168	11008	0.2070005744	2093
1168	11008	0.2070005744	2094
1168	11008	0.2070005744	2095
1168	11008	0.2070005744	2096
1168	11008	0.2070005744	2097
1168	11008	0.2070005744	2098
1168	11008	0.2070005744	2099
1168	11008	0.2070005744	2100
1168	11008	0.2070005744	2101
1168	11008	0.2070005744	2102
1168	11008	0.2070005744	2103
1168	11008	0.2070005744	2104
1168	11008	0.2070005744	2105
1168	11008	0.2070005744	2106
1168	11008	0.2070005744	2107
1168	11008	0.2070005744	2108
1168	11008	0.2070005744	2109
1168	11008	0.2070005744	2110
1168	11008	0.2070005744	2111
1168	11008	0.2070005744	2112
1168	11008	0.2070005744	2113
1168	11008	0.2070005744	2114
1168	11008	0.2070005744	2115
1168	11008	0.2070005744	2116
1168	11008	0.2070005744	2117
1168	11008	0.2070005744	2118
1168	11008	0.2070005744	2119
1168	11008	0.2070005744	2120
1168	11008	0.2070005744	2121
1168	11008	0.2070005744	2122
1168	11008	0.2070005744	2123
1168	11008	0.2070005744	2124
1168	11008	0.2070005744	2125
1172	273	0.0000007624	1
1172	287	0.0000008064	2
1171	273	0.0000007624	1
1171	287	0.0000008064	2
1173	255	0.0000006744	1
1173	265	0.0000007184	2
1174	601	0.007	2
1174	657	0.0070001912	0
1174	657	0.0070001912	2
1174	657	0.0070001912	4
1174	657	0.0070001912	6
1174	657	0.0070001912	8
1174	657	0.0070001912	10
1174	657	0.0070001912	12
1174	657	0.0070001912	14
1174	657	0.0070001912	16
1174	657	0.0070001912	18
1174	657	0.0070001912	20
1174	657	0.0070001912	22
1174	657	0.0070001912	24
1174	657	0.0070001912	26
1174	11008	0.2070005744	24
1174	11008	0.2070005744	22
1174	11008	0.2070005744	20
1174	11008	0.2070005744	18
1174	11008	0.2070005744	16
1174	11008	0.2070005744	14
1174	11008	0.2070005744	12
1174	11008	0.2070005744	10
1174	11008	0.2070005744	8
1174	11008	0.2070005744	6
1174	11008	0.2070005744	4
1174	11008	0.2070005744	2
1174	11008	0.2070005744	0
1174	11008	0.2070005744	2
1174	11008	0.2070005744	4
1174	11008	0.2070005744	6
1174	11008	0.2070005744	8
1174	11008	0.2070005744	10
1174	11008	0.2070005744	12
1174	11008	0.2070005744	14
1174	11008	0.2070005744	16
1174	11008	0.2070005744	18
1174	11008	0.2070005744	20
1174	11008	0.2070005744	22
1174	11008	0.2070005744	24
1174	11008	0.2070005744	26
1174	11008	0.2070005744	28
1174	11008	0.2070005744	30
1174	11008	0.2070005744	32
1174	11008	0.2070005744	34
1174	11008	0.2070005744	36
1174	11008	0.2070005744	38
1174	11008	0.2070005744	40
1174	11008	0.2070005744	42
1174	11008	0.2070005744	44
1174	11008	0.2070005744	46
1174	11008	0.2070005744	48
1174	11008	0.2070005744	50
1174	11008	0.2070005744	52
1174	11008	0.2070005744	54
1174	11008	0.2070005744	56
1174	11008	0.2070005744	58
1174	11008	0.2070005744	60
1174	11008	0.2070005744	62
1174	11008	0.2070005744	64
1174	11008	0.2070005744	66
1174	11008	0.2070005744	68
1174	11008	0.2070005744	70
1174	11008	0.2070005744	72
1174	11008	0.2070005744	74
1174	11008	0.2070005744	76
1174	11008	0.2070005744	78
1174	11008	0.2070005744	80
1174	11008	0.2070005744	82
1174	11008	0.2070005744	84
1174	11008	0.2070005744	86
1174	11008	0.2070005744	88
1174	11008	0.2070005744	90
1174	11008	0.2070005744	92
1174	11008	0.2070005744	94
1174	11008	0.2070005744	96
1174	11008	0.2070005744	98
1174	11008	0.2070005744	100
1174	11008	0.2070005744	102
1174	11008	0.2070005744	104
1174	11008	0.2070005744	106
1174	11008	0.2070005744	108
1174	11008	0.2070005744	110
1174	11008	0.2070005744	112
1174	11008	0.2070005744	114
1174	11008	0.2070005744	116
1174	11008	0.2070005744	118
1174	11008	0.2070005744	120
1174	11008	0.2070005744	122
1174	11008	0.2070005744	124
1174	11008	0.2070005744	126
1174	11008	0.2070005744	128
1174	11008	0.2070005744	130
1174	11008	0.2070005744	132
1174	11008	0.2070005744	134
1174	11008	0.2070005744	136
1174	11008	0.2070005744	138
1174	11008	0.2070005744	140
1174	11008	0.2070005744	142
1174	11008	0.2070005744	144
1174	11008	0.2070005744	146
1174	11008	0.2070005744	148
1174	11008	0.2070005744	150
1174	11008	0.2070005744	152
1174	11008	0.2070005744	154
1174	11008	0.2070005744	156
1174	11008	0.2070005744	158
1174	11008	0.2070005744	160
1174	11008	0.2070005744	162
1174	11008	0.2070005744	164
1174	11008	0.2070005744	166
1174	11008	0.2070005744	168
1174	11008	0.2070005744	170
1174	11008	0.2070005744	172
1174	11008	0.2070005744	174
1174	11008	0.2070005744	176
1174	11008	0.2070005744	178
1174	11008	0.2070005744	180
1174	11008	0.2070005744	182
1174	11008	0.2070005744	184
1174	11008	0.2070005744	186
1174	11008	0.2070005744	188
1174	11008	0.2070005744	190
1174	11008	0.2070005744	192
1174	11008	0.2070005744	194
1174	11008	0.2070005744	196
1174	11008	0.2070005744	198
1174	11008	0.2070005744	200
1174	11008	0.2070005744	202
1174	11008	0.2070005744	204
1174	11008	0.2070005744	206
1174	11008	0.2070005744	208
1174	11008	0.2070005744	210
1174	11008	0.2070005744	212
1174	11008	0.2070005744	214
1174	11008	0.2070005744	216
1174	11008	0.2070005744	218
1174	11008	0.2070005744	220
1174	11008	0.2070005744	222
1174	11008	0.2070005744	224
1174	21742	0.4070025416	222
1174	21742	0.4070025416	220
1174	21742	0.4070025416	218
1174	21742	0.4070025416	216
1174	21742	0.4070025416	214
1174	21742	0.4070025416	212
1174	21742	0.4070025416	210
1174	21742	0.4070025416	208
1174	21742	0.4070025416	206
1174	21742	0.4070025416	204
1174	21742	0.4070025416	202
1174	21742	0.4070025416	200
1174	21742	0.4070025416	198
1174	21742	0.4070025416	196
1174	21742	0.4070025416	194
1174	21742	0.4070025416	192
1174	21742	0.4070025416	190
1174	21742	0.4070025416	188
1174	21742	0.4070025416	186
1174	21742	0.4070025416	184
1174	21742	0.4070025416	182
1174	21742	0.4070025416	180
1174	21742	0.4070025416	178
1174	21742	0.4070025416	176
1174	21742	0.4070025416	174
1174	21742	0.4070025416	172
1174	21742	0.4070025416	170
1174	21742	0.4070025416	168
1174	21742	0.4070025416	166
1174	21742	0.4070025416	164
1174	21742	0.4070025416	162
1174	21742	0.4070025416	160
1174	21742	0.4070025416	158
1174	21742	0.4070025416	156
1174	21742	0.4070025416	154
1174	21742	0.4070025416	152
1174	21742	0.4070025416	150
1174	21742	0.4070025416	148
1174	21742	0.4070025416	146
1174	21742	0.4070025416	144
1174	21742	0.4070025416	142
1174	21742	0.4070025416	140
1174	21742	0.4070025416	138
1174	21742	0.4070025416	136
1174	21742	0.4070025416	134
1174	21742	0.4070025416	132
1174	21742	0.4070025416	130
1174	21742	0.4070025416	128
1174	21742	0.4070025416	126
1174	21742	0.4070025416	124
1174	21742	0.4070025416	122
1174	21742	0.4070025416	120
1174	21742	0.4070025416	118
1174	21742	0.4070025416	116
1174	21742	0.4070025416	114
1174	21742	0.4070025416	112
1174	21742	0.4070025416	110
1174	21742	0.4070025416	108
1174	21742	0.4070025416	106
1174	21742	0.4070025416	104
1174	21742	0.4070025416	102
1174	21742	0.4070025416	100
1174	21742	0.4070025416	98
1174	21742	0.4070025416	96
1174	21742	0.4070025416	94
1174	21742	0.4070025416	92
1174	21742	0.4070025416	90
1174	21742	0.4070025416	88
1174	21742	0.4070025416	86
1174	21742	0.4070025416	84
1174	21742	0.4070025416	82
1174	21742	0.4070025416	80
1174	21742	0.4070025416	78
1174	21742	0.4070025416	76
1174	21742	0.4070025416	74
1174	21742	0.4070025416	72
1174	21742	0.4070025416	70
1174	21742	0.4070025416	68
1174	21742	0.4070025416	66
1174	21742	0.4070025416	64
1174	21742	0.4070025416	62
1174	21742	0.4070025416	60
1174	21742	0.4070025416	58
1174	21742	0.4070025416	56
1174	21742	0.4070025416	54
1174	21742	0.4070025416	52
1174	21742	0.4070025416	50
1174	21742	0.4070025416	48
1174	21742	0.4070025416	46
1174	21742	0.4070025416	44
1174	21742	0.4070025416	42
1174	21742	0.4070025416	40
1174	21742	0.4070025416	38
1174	21742	0.4070025416	36
1174	21742	0.4070025416	34
1174	21742	0.4070025416	32
1174	21742	0.4070025416	30
1174	21742	0.4070025416	28
1174	21742	0.4070025416	26
1174	21742	0.4070025416	24
1174	21742	0.4070025416	22
1174	21742	0.4070025416	20
1174	21742	0.4070025416	18
1174	21742	0.4070025416	16
1174	21742	0.4070025416	14
1174	21742	0.4070025416	12
1174	21742	0.4070025416	10
1174	21742	0.4070025416	8
1174	21742	0.4070025416	6
1174	21742	0.4070025416	4
1174	21742	0.4070025416	2
1174	21742	0.4070025416	0
1175	601	0.007	2
1175	657	0.0070001912	0
1175	657	0.0070001912	2
1175	657	0.0070001912	4
1175	657	0.0070001912	6
1175	657	0.0070001912	8
1175	657	0.0070001912	10
1175	657	0.0070001912	12
1175	657	0.0070001912	14
1175	657	0.0070001912	16
1175	657	0.0070001912	18
1175	657	0.0070001912	20
1175	657	0.0070001912	22
1175	657	0.0070001912	24
1175	657	0.0070001912	26
1175	11008	0.2070005744	24
1175	11008	0.2070005744	22
1175	11008	0.2070005744	20
1175	11008	0.2070005744	18
1175	11008	0.2070005744	16
1175	11008	0.2070005744	14
1175	11008	0.2070005744	12
1175	11008	0.2070005744	10
1175	11008	0.2070005744	8
1175	11008	0.2070005744	6
1175	11008	0.2070005744	4
1175	11008	0.2070005744	2
1175	11008	0.2070005744	0
1175	11008	0.2070005744	2
1175	11008	0.2070005744	4
1175	11008	0.2070005744	6
1175	11008	0.2070005744	8
1175	11008	0.2070005744	10
1175	11008	0.2070005744	12
1175	11008	0.2070005744	14
1175	11008	0.2070005744	16
1175	11008	0.2070005744	18
1175	11008	0.2070005744	20
1175	11008	0.2070005744	22
1175	11008	0.2070005744	24
1175	11008	0.2070005744	26
1175	11008	0.2070005744	28
1175	11008	0.2070005744	30
1175	11008	0.2070005744	32
1175	11008	0.2070005744	34
1175	11008	0.2070005744	36
1175	11008	0.2070005744	38
1175	11008	0.2070005744	40
1175	11008	0.2070005744	42
1175	11008	0.2070005744	44
1175	11008	0.2070005744	46
1175	11008	0.2070005744	48
1175	11008	0.2070005744	50
1175	11008	0.2070005744	52
1175	11008	0.2070005744	54
1175	11008	0.2070005744	56
1175	11008	0.2070005744	58
1175	11008	0.2070005744	60
1175	11008	0.2070005744	62
1175	11008	0.2070005744	64
1175	11008	0.2070005744	66
1175	11008	0.2070005744	68
1175	11008	0.2070005744	70
1175	11008	0.2070005744	72
1175	11008	0.2070005744	74
1175	11008	0.2070005744	76
1175	11008	0.2070005744	78
1175	11008	0.2070005744	80
1175	11008	0.2070005744	82
1175	11008	0.2070005744	84
1175	11008	0.2070005744	86
1175	11008	0.2070005744	88
1175	11008	0.2070005744	90
1175	11008	0.2070005744	92
1175	11008	0.2070005744	94
1175	11008	0.2070005744	96
1175	11008	0.2070005744	98
1175	11008	0.2070005744	100
1175	11008	0.2070005744	102
1175	11008	0.2070005744	104
1175	11008	0.2070005744	106
1175	11008	0.2070005744	108
1175	11008	0.2070005744	110
1175	11008	0.2070005744	112
1175	11008	0.2070005744	114
1175	11008	0.2070005744	116
1175	11008	0.2070005744	118
1175	11008	0.2070005744	120
1175	11008	0.2070005744	122
1175	11008	0.2070005744	124
1175	11008	0.2070005744	126
1175	11008	0.2070005744	128
1175	11008	0.2070005744	130
1175	11008	0.2070005744	132
1175	11008	0.2070005744	134
1175	11008	0.2070005744	136
1175	11008	0.2070005744	138
1175	11008	0.2070005744	140
1175	11008	0.2070005744	142
1175	11008	0.2070005744	144
1175	11008	0.2070005744	146
1175	11008	0.2070005744	148
1175	11008	0.2070005744	150
1175	11008	0.2070005744	152
1175	11008	0.2070005744	154
1175	11008	0.2070005744	156
1175	11008	0.2070005744	158
1175	11008	0.2070005744	160
1175	11008	0.2070005744	162
1175	11008	0.2070005744	164
1175	11008	0.2070005744	166
1175	11008	0.2070005744	168
1175	11008	0.2070005744	170
1175	11008	0.2070005744	172
1175	11008	0.2070005744	174
1175	11008	0.2070005744	176
1175	11008	0.2070005744	178
1175	11008	0.2070005744	180
1175	11008	0.2070005744	182
1175	11008	0.2070005744	184
1175	11008	0.2070005744	186
1175	11008	0.2070005744	188
1175	11008	0.2070005744	190
1175	11008	0.2070005744	192
1175	11008	0.2070005744	194
1175	11008	0.2070005744	196
1175	11008	0.2070005744	198
1175	11008	0.2070005744	200
1175	11008	0.2070005744	202
1175	11008	0.2070005744	204
1175	11008	0.2070005744	206
1175	11008	0.2070005744	208
1175	11008	0.2070005744	210
1175	11008	0.2070005744	212
1175	11008	0.2070005744	214
1175	11008	0.2070005744	216
1175	11008	0.2070005744	218
1175	11008	0.2070005744	220
1175	11008	0.2070005744	222
1175	11008	0.2070005744	224
1175	21742	0.4070025416	222
1175	21742	0.4070025416	220
1175	21742	0.4070025416	218
1175	21742	0.4070025416	216
1175	21742	0.4070025416	214
1175	21742	0.4070025416	212
1175	21742	0.4070025416	210
1175	21742	0.4070025416	208
1175	21742	0.4070025416	206
1175	21742	0.4070025416	204
1175	21742	0.4070025416	202
1175	21742	0.4070025416	200
1175	21742	0.4070025416	198
1175	21742	0.4070025416	196
1175	21742	0.4070025416	194
1175	21742	0.4070025416	192
1175	21742	0.4070025416	190
1175	21742	0.4070025416	188
1175	21742	0.4070025416	186
1175	21742	0.4070025416	184
1175	21742	0.4070025416	182
1175	21742	0.4070025416	180
1175	21742	0.4070025416	178
1175	21742	0.4070025416	176
1175	21742	0.4070025416	174
1175	21742	0.4070025416	172
1175	21742	0.4070025416	170
1175	21742	0.4070025416	168
1175	21742	0.4070025416	166
1175	21742	0.4070025416	164
1175	21742	0.4070025416	162
1175	21742	0.4070025416	160
1175	21742	0.4070025416	158
1175	21742	0.4070025416	156
1175	21742	0.4070025416	154
1175	21742	0.4070025416	152
1175	21742	0.4070025416	150
1175	21742	0.4070025416	148
1175	21742	0.4070025416	146
1175	21742	0.4070025416	144
1175	21742	0.4070025416	142
1175	21742	0.4070025416	140
1175	21742	0.4070025416	138
1175	21742	0.4070025416	136
1175	21742	0.4070025416	134
1175	21742	0.4070025416	132
1175	21742	0.4070025416	130
1175	21742	0.4070025416	128
1175	21742	0.4070025416	126
1175	21742	0.4070025416	124
1175	21742	0.4070025416	122
1175	21742	0.4070025416	120
1175	21742	0.4070025416	118
1175	21742	0.4070025416	116
1175	21742	0.4070025416	114
1175	21742	0.4070025416	112
1175	21742	0.4070025416	110
1175	21742	0.4070025416	108
1175	21742	0.4070025416	106
1175	21742	0.4070025416	104
1175	21742	0.4070025416	102
1175	21742	0.4070025416	100
1175	21742	0.4070025416	98
1175	21742	0.4070025416	96
1175	21742	0.4070025416	94
1175	21742	0.4070025416	92
1175	21742	0.4070025416	90
1175	21742	0.4070025416	88
1175	21742	0.4070025416	86
1175	21742	0.4070025416	84
1175	21742	0.4070025416	82
1175	21742	0.4070025416	80
1175	21742	0.4070025416	78
1175	21742	0.4070025416	76
1175	21742	0.4070025416	74
1175	21742	0.4070025416	72
1175	21742	0.4070025416	70
1175	21742	0.4070025416	68
1175	21742	0.4070025416	66
1175	21742	0.4070025416	64
1175	21742	0.4070025416	62
1175	21742	0.4070025416	60
1175	21742	0.4070025416	58
1175	21742	0.4070025416	56
1175	21742	0.4070025416	54
1175	21742	0.4070025416	52
1175	21742	0.4070025416	50
1175	21742	0.4070025416	48
1175	21742	0.4070025416	46
1175	21742	0.4070025416	44
1175	21742	0.4070025416	42
1175	21742	0.4070025416	40
1175	21742	0.4070025416	38
1175	21742	0.4070025416	36
1175	21742	0.4070025416	34
1175	21742	0.4070025416	32
1175	21742	0.4070025416	30
1175	21742	0.4070025416	28
1175	21742	0.4070025416	26
1175	21742	0.4070025416	24
1175	21742	0.4070025416	22
1175	21742	0.4070025416	20
1175	21742	0.4070025416	18
1175	21742	0.4070025416	16
[...]
827	419664	7.082	1398
827	420001	7.087	1399
827	420318	7.092	1400
827	420633	7.097	1401
827	420974	7.102	1402
827	421299	7.107	1403
827	421585	7.112	1404
827	421922	7.117	1405
827	422239	7.122	1406
827	422554	7.127	1407
827	422882	7.132	1408
827	423207	7.137	1409
827	423493	7.142	1410
827	423830	7.147	1411
827	424147	7.152	1412
827	424462	7.157	1413
827	424790	7.162	1414
827	425115	7.167	1415
827	425401	7.172	1416
827	425738	7.177	1417
827	426055	7.182	1418
827	426370	7.187	1419
827	426698	7.192	1420
827	427023	7.197	1421
827	427322	7.202	1422
827	427659	7.207	1423
827	427976	7.212	1424
827	428291	7.217	1425
827	428619	7.222	1426
827	428944	7.227	1427
827	429230	7.232	1428
827	429567	7.237	1429
827	429884	7.242	1430
827	430199	7.247	1431
827	430527	7.252	1432
827	430852	7.257	1433
827	431138	7.262	1434
827	431475	7.267	1435
827	431792	7.272	1436
827	432107	7.277	1437
827	432435	7.282	1438
827	432760	7.287	1439
827	433046	7.292	1440
827	433383	7.297	1441
827	433713	7.302	1442
827	434028	7.307	1443
827	434356	7.312	1444
827	434681	7.317	1445
827	434967	7.322	1446
827	435304	7.327	1447
827	435621	7.332	1448
827	435936	7.337	1449
827	436264	7.342	1450
827	436589	7.347	1451
827	436875	7.352	1452
827	437212	7.357	1453
827	437529	7.362	1454
827	437844	7.367	1455
827	438172	7.372	1456
827	438497	7.377	1457
827	438783	7.382	1458
827	439120	7.387	1459
827	439437	7.392	1460
827	439752	7.397	1461
827	440093	7.402	1462
827	440418	7.407	1463
827	440704	7.412	1464
827	441041	7.417	1465
827	441358	7.422	1466
827	441673	7.427	1467
827	442001	7.432	1468
827	442326	7.437	1469
827	442612	7.442	1470
827	442949	7.447	1471
827	443266	7.452	1472
827	443581	7.457	1473
827	443909	7.462	1474
827	444234	7.467	1475
827	444520	7.472	1476
827	444857	7.477	1477
827	445174	7.482	1478
827	445489	7.487	1479
827	445817	7.492	1480
827	446142	7.497	1481
827	446441	7.502	1482
827	446778	7.507	1483
827	447095	7.512	1484
827	447410	7.517	1485
827	447738	7.522	1486
827	448063	7.527	1487
827	448349	7.532	1488
827	448686	7.537	1489
827	449003	7.542	1490
827	449318	7.547	1491
827	449646	7.552	1492
827	449971	7.557	1493
827	450257	7.562	1494
827	450594	7.567	1495
827	450911	7.572	1496
827	451226	7.577	1497
827	451554	7.582	1498
827	451879	7.587	1499
827	452165	7.592	1500
827	452502	7.597	1501
827	452819	7.602	1502
827	453134	7.607	1503
827	453462	7.612	1504
827	453787	7.617	1505
827	454073	7.622	1506
827	454410	7.627	1507
827	454727	7.632	1508
827	455042	7.637	1509
827	455370	7.642	1510
827	455695	7.647	1511
827	455981	7.652	1512
827	456318	7.657	1513
827	456635	7.662	1514
827	456950	7.667	1515
827	457278	7.672	1516
827	457603	7.677	1517
827	457889	7.682	1518
827	458226	7.687	1519
827	458543	7.692	1520
827	458858	7.697	1521
827	459186	7.702	1522
827	459511	7.707	1523
827	459797	7.712	1524
827	460134	7.717	1525
827	460451	7.722	1526
827	460766	7.727	1527
827	461094	7.732	1528
827	461419	7.737	1529
827	461705	7.742	1530
827	462042	7.747	1531
827	462359	7.752	1532
827	462674	7.757	1533
827	463002	7.762	1534
827	463327	7.767	1535
827	463613	7.772	1536
827	463950	7.777	1537
827	464267	7.782	1538
827	464582	7.787	1539
827	464910	7.792	1540
827	465235	7.797	1541
827	465521	7.802	1542
827	465858	7.807	1543
827	466175	7.812	1544
827	466490	7.817	1545
827	466818	7.822	1546
827	467143	7.827	1547
827	467429	7.832	1548
827	467766	7.837	1549
827	468083	7.842	1550
827	468398	7.847	1551
827	468726	7.852	1552
827	469051	7.857	1553
827	469337	7.862	1554
827	469674	7.867	1555
827	469991	7.872	1556
827	470306	7.877	1557
827	470634	7.882	1558
827	470959	7.887	1559
827	471245	7.892	1560
827	471582	7.897	1561
827	471899	7.902	1562
827	472214	7.907	1563
827	472542	7.912	1564
827	472867	7.917	1565
827	473153	7.922	1566
827	473490	7.927	1567
827	473807	7.932	1568
827	474122	7.937	1569
827	474450	7.942	1570
827	474775	7.947	1571
827	475061	7.952	1572
827	475398	7.957	1573
827	475715	7.962	1574
827	476030	7.967	1575
827	476358	7.972	1576
827	476683	7.977	1577
827	476969	7.982	1578
827	477306	7.987	1579
827	477623	7.992	1580
827	477938	7.997	1581
827	478266	8.002	1582
827	478591	8.007	1583
827	478877	8.012	1584
827	479214	8.017	1585
827	479531	8.022	1586
827	479846	8.027	1587
827	480174	8.032	1588
827	480499	8.037	1589
827	480785	8.042	1590
827	481122	8.047	1591
827	481439	8.052	1592
827	481754	8.057	1593
827	482082	8.062	1594
827	482407	8.067	1595
827	482693	8.072	1596
827	483030	8.077	1597
827	483347	8.082	1598
827	483662	8.087	1599
827	483990	8.092	1600
827	484315	8.097	1601
827	484601	8.102	1602
827	484938	8.107	1603
827	485255	8.112	1604
827	485570	8.117	1605
827	485898	8.122	1606
827	486223	8.127	1607
827	486509	8.132	1608
827	486846	8.137	1609
827	487163	8.142	1610
827	487478	8.147	1611
827	487806	8.152	1612
827	488131	8.157	1613
827	488417	8.162	1614
827	488754	8.167	1615
827	489071	8.172	1616
827	489386	8.177	1617
827	489714	8.182	1618
827	490039	8.187	1619
827	490325	8.192	1620
827	490662	8.197	1621
827	490979	8.202	1622
827	491294	8.207	1623
827	491622	8.212	1624
827	491947	8.217	1625
827	492233	8.222	1626
827	492570	8.227	1627
827	492887	8.232	1628
827	493202	8.237	1629
827	493530	8.242	1630
827	493855	8.247	1631
827	494141	8.252	1632
827	494478	8.257	1633
827	494795	8.262	1634
827	495110	8.267	1635
827	495438	8.272	1636
827	495763	8.277	1637
827	496049	8.282	1638
827	496386	8.287	1639
827	496703	8.292	1640
827	497018	8.297	1641
827	497346	8.302	1642
827	497671	8.307	1643
827	497957	8.312	1644
827	498294	8.317	1645
827	498611	8.322	1646
827	498926	8.327	1647
827	499254	8.332	1648
827	499579	8.337	1649
827	499865	8.342	1650
827	500202	8.347	1651
827	500519	8.352	1652
827	500834	8.357	1653
827	501162	8.362	1654
827	501487	8.367	1655
827	501773	8.372	1656
827	502110	8.377	1657
827	502427	8.382	1658
827	502742	8.387	1659
827	503070	8.392	1660
827	503395	8.397	1661
827	503681	8.402	1662
827	504018	8.407	1663
827	504335	8.412	1664
827	504650	8.417	1665
827	504978	8.422	1666
827	505303	8.427	1667
827	505589	8.432	1668
827	505926	8.437	1669
827	506243	8.442	1670
827	506558	8.447	1671
827	506886	8.452	1672
827	507211	8.457	1673
827	507497	8.462	1674
827	507834	8.467	1675
827	508151	8.472	1676
827	508466	8.477	1677
827	508794	8.482	1678
827	509119	8.487	1679
827	509405	8.492	1680
827	509742	8.497	1681
827	510059	8.502	1682
827	510374	8.507	1683
827	510702	8.512	1684
827	511027	8.517	1685
827	511313	8.522	1686
827	511650	8.527	1687
827	511967	8.532	1688
827	512282	8.537	1689
827	512610	8.542	1690
827	512935	8.547	1691
827	513221	8.552	1692
827	513558	8.557	1693
827	513875	8.562	1694
827	514190	8.567	1695
827	514518	8.572	1696
827	514843	8.577	1697
827	515129	8.582	1698
827	515466	8.587	1699
827	515783	8.592	1700
827	516098	8.597	1701
827	516426	8.602	1702
827	516751	8.607	1703
827	517037	8.612	1704
827	517374	8.617	1705
827	517691	8.622	1706
827	518006	8.627	1707
827	518334	8.632	1708
827	518659	8.637	1709
827	518945	8.642	1710
827	519282	8.647	1711
827	519599	8.652	1712
827	519914	8.657	1713
827	520242	8.662	1714
827	520567	8.667	1715
827	520853	8.672	1716
827	521190	8.677	1717
827	521507	8.682	1718
827	521822	8.687	1719
827	522150	8.692	1720
827	522475	8.697	1721
827	522761	8.702	1722
827	523098	8.707	1723
827	523415	8.712	1724
827	523730	8.717	1725
827	524058	8.722	1726
827	524383	8.727	1727
827	524669	8.732	1728
827	525006	8.737	1729
827	525323	8.742	1730
827	525638	8.747	1731
827	525966	8.752	1732
827	526291	8.757	1733
827	526577	8.762	1734
827	526914	8.767	1735
827	527231	8.772	1736
827	527546	8.777	1737
827	527874	8.782	1738
827	528199	8.787	1739
827	528485	8.792	1740
827	528822	8.797	1741
827	529139	8.802	1742
827	529454	8.807	1743
827	529782	8.812	1744
827	530107	8.817	1745
827	530393	8.822	1746
827	530730	8.827	1747
827	531047	8.832	1748
827	531362	8.837	1749
827	531690	8.842	1750
827	532015	8.847	1751
827	532301	8.852	1752
827	532638	8.857	1753
827	532955	8.862	1754
827	533270	8.867	1755
827	533598	8.872	1756
827	533923	8.877	1757
827	534209	8.882	1758
827	534546	8.887	1759
827	534863	8.892	1760
827	535178	8.897	1761
827	535506	8.902	1762
827	535831	8.907	1763
827	536117	8.912	1764
827	536454	8.917	1765
827	536771	8.922	1766
827	537086	8.927	1767
827	537414	8.932	1768
827	537739	8.937	1769
827	538025	8.942	1770
827	538362	8.947	1771
827	538679	8.952	1772
827	538994	8.957	1773
827	539322	8.962	1774
827	539647	8.967	1775
827	539933	8.972	1776
827	540270	8.977	1777
827	540587	8.982	1778
827	540902	8.987	1779
827	541230	8.992	1780
827	541555	8.997	1781
827	541841	9.002	1782
827	542178	9.007	1783
827	542495	9.012	1784
827	542817	9.017	1785
827	543152	9.022	1786
827	543485	9.027	1787
827	543798	9.032	1788
827	544169	9.037	1789
827	544494	9.042	1790
827	544809	9.047	1791
827	545144	9.052	1792
827	545477	9.057	1793
827	545784	9.062	1794
827	546156	9.067	1795
827	546500	9.072	1796
827	546829	9.077	1797
827	547178	9.082	1798
827	547537	9.087	1799
827	547865	9.092	1800
827	548244	9.097	1801
827	548589	9.102	1802
827	548932	9.107	1803
827	549288	9.112	1804
827	549641	9.117	1805
827	549955	9.122	1806
827	550320	9.127	1807
827	550665	9.132	1808
827	551008	9.137	1809
827	551364	9.142	1810
827	551717	9.147	1811
827	552031	9.152	1812
827	552396	9.157	1813
827	552741	9.162	1814
827	553084	9.167	1815
827	553440	9.172	1816
827	553793	9.177	1817
827	554107	9.182	1818
827	554472	9.187	1819
827	554817	9.192	1820
827	555160	9.197	1821
827	555516	9.202	1822
827	555869	9.207	1823
827	556183	9.212	1824
827	556548	9.217	1825
827	556893	9.222	1826
827	557236	9.227	1827
827	557592	9.232	1828
827	557945	9.237	1829
827	558259	9.242	1830
827	558624	9.247	1831
827	558969	9.252	1832
827	559312	9.257	1833
827	559668	9.262	1834
827	560021	9.267	1835
827	560335	9.272	1836
827	560700	9.277	1837
827	561045	9.282	1838
827	561388	9.287	1839
827	561744	9.292	1840
827	562097	9.297	1841
827	562411	9.302	1842
827	562776	9.307	1843
827	563121	9.312	1844
827	563464	9.317	1845
827	563820	9.322	1846
827	564173	9.327	1847
827	564487	9.332	1848
827	564852	9.337	1849
827	565197	9.342	1850
827	565540	9.347	1851
827	565896	9.352	1852
827	566249	9.357	1853
827	566563	9.362	1854
827	566928	9.367	1855
827	567273	9.372	1856
827	567616	9.377	1857
827	567972	9.382	1858
827	568325	9.387	1859
827	568639	9.392	1860
827	569004	9.397	1861
827	569349	9.402	1862
827	569692	9.407	1863
827	570048	9.412	1864
827	570401	9.417	1865
827	570715	9.422	1866
827	571080	9.427	1867
827	571425	9.432	1868
827	571768	9.437	1869
827	572124	9.442	1870
827	572477	9.447	1871
827	572791	9.452	1872
827	573156	9.457	1873
827	573501	9.462	1874
827	573844	9.467	1875
827	574200	9.472	1876
827	574553	9.477	1877
827	574867	9.482	1878
827	575232	9.487	1879
827	575577	9.492	1880
827	575920	9.497	1881
827	576276	9.502	1882
827	576629	9.507	1883
827	576943	9.512	1884
827	577308	9.517	1885
827	577653	9.522	1886
827	577996	9.527	1887
827	578352	9.532	1888
827	578705	9.537	1889
827	579019	9.542	1890
827	579384	9.547	1891
827	579729	9.552	1892
827	580072	9.557	1893
827	580428	9.562	1894
827	580781	9.567	1895
827	581095	9.572	1896
827	581460	9.577	1897
827	581805	9.582	1898
827	582148	9.587	1899
827	582504	9.592	1900
827	582857	9.597	1901
827	583171	9.602	1902
827	583536	9.607	1903
827	583881	9.612	1904
827	584224	9.617	1905
827	584580	9.622	1906
827	584933	9.627	1907
827	585247	9.632	1908
827	585612	9.637	1909
827	585957	9.642	1910
827	586300	9.647	1911
827	586656	9.652	1912
827	587009	9.657	1913
827	587323	9.662	1914
827	587688	9.667	1915
827	588033	9.672	1916
827	588376	9.677	1917
827	588732	9.682	1918
827	589085	9.687	1919
827	589399	9.692	1920
827	589764	9.697	1921
827	590109	9.702	1922
827	590452	9.707	1923
827	590808	9.712	1924
827	591161	9.717	1925
827	591475	9.722	1926
827	591840	9.727	1927
827	592185	9.732	1928
827	592528	9.737	1929
827	592884	9.742	1930
827	593237	9.747	1931
827	593551	9.752	1932
827	593916	9.757	1933
827	594261	9.762	1934
827	594604	9.767	1935
827	594960	9.772	1936
827	595313	9.777	1937
827	595627	9.782	1938
827	595992	9.787	1939
827	596337	9.792	1940
827	596680	9.797	1941
827	597036	9.802	1942
827	597389	9.807	1943
827	597703	9.812	1944
827	598068	9.817	1945
827	598413	9.822	1946
827	598756	9.827	1947
827	599112	9.832	1948
827	599465	9.837	1949
827	599779	9.842	1950
827	600144	9.847	1951
827	600489	9.852	1952
827	600832	9.857	1953
827	601188	9.862	1954
827	601541	9.867	1955
827	601855	9.872	1956
827	602220	9.877	1957
827	602565	9.882	1958
827	602908	9.887	1959
827	603264	9.892	1960
827	603617	9.897	1961
827	603931	9.902	1962
827	604296	9.907	1963
827	604641	9.912	1964
827	604984	9.917	1965
827	605340	9.922	1966
827	605693	9.927	1967
827	606007	9.932	1968
827	606372	9.937	1969
827	606717	9.942	1970
827	607060	9.947	1971
827	607416	9.952	1972
827	607769	9.957	1973
827	608083	9.962	1974
827	608448	9.967	1975
827	608793	9.972	1976
827	609136	9.977	1977
827	609492	9.982	1978
827	609845	9.987	1979
827	610159	9.992	1980
827	610524	9.997	1981
839	0	0	1
1319	1065	0.016038050947	7504
1319	147164	3.016038050947	7504
1319	542783	9.016038050947	7504
1320	1065	0.016038050947	7504
1320	147164	3.016038050947	7504
1320	542783	9.016038050947	7504
1322	1065	0.016038050947	0
1322	147164	3.016038050947	0
1322	542783	9.016038050947	0
1333	1065	0.016038050947	0
1333	147164	3.016038050947	0
1333	542783	9.016038050947	0
1343	1299	0.021540784608	7504
1343	147433	3.021540784608	7504
1343	543119	9.021540784608	7504
1344	1299	0.021540784608	7504
1344	147433	3.021540784608	7504
1344	543119	9.021540784608	7504
1346	1299	0.021540784608	0
1346	147433	3.021540784608	0
1346	543119	9.021540784608	0
1357	1299	0.021540784608	0
1357	147433	3.021540784608	0
1357	543119	9.021540784608	0
1367	1539	0.02660460389	7504
1367	147702	3.02660460389	7504
1367	543451	9.02660460389	7504
1368	1539	0.02660460389	7504
1368	147702	3.02660460389	7504
1368	543451	9.02660460389	7504
1370	1539	0.02660460389	0
1370	147702	3.02660460389	0
1370	543451	9.02660460389	0
1381	1539	0.02660460389	0
1381	147702	3.02660460389	0
1381	543451	9.02660460389	0
1391	1574	0.027878343419	7504
1391	147744	3.027878343419	7504
1391	543505	9.027878343419	7504
1392	1574	0.027878343419	7504
1392	147744	3.027878343419	7504
1392	543505	9.027878343419	7504
1394	1574	0.027878343419	0
1394	147744	3.027878343419	0
1394	543505	9.027878343419	0
1405	1574	0.027878343419	0
1405	147744	3.027878343419	0
1405	543505	9.027878343419	0
1415	1616	0.028371024961	7504
1415	147791	3.028371024961	7504
1415	543563	9.028371024961	7504
1416	1616	0.028371024961	7504
1416	147791	3.028371024961	7504
1416	543563	9.028371024961	7504
1418	1616	0.028371024961	0
1418	147791	3.028371024961	0
1418	543563	9.028371024961	0
1429	1616	0.028371024961	0
1429	147791	3.028371024961	0
1429	543563	9.028371024961	0
1439	1840	0.032649362497	7504
1439	148041	3.032649362497	7504
1439	543864	9.032649362497	7504
1440	1840	0.032649362497	7504
1440	148041	3.032649362497	7504
1440	543864	9.032649362497	7504
1442	1840	0.032649362497	0
1442	148041	3.032649362497	0
1442	543864	9.032649362497	0
1453	1840	0.032649362497	0
1453	148041	3.032649362497	0
1453	543864	9.032649362497	0
1463	1920	0.034516076937	7504
1463	148129	3.034516076937	7504
1463	543982	9.034516076937	7504
1464	1920	0.034516076937	7504
1464	148129	3.034516076937	7504
1464	543982	9.034516076937	7504
1466	1920	0.034516076937	0
1466	148129	3.034516076937	0
1466	543982	9.034516076937	0
1477	1920	0.034516076937	0
1477	148129	3.034516076937	0
1477	543982	9.034516076937	0
1487	2009	0.036651693161	7504
1487	148234	3.036651693161	7504
1487	544111	9.036651693161	7504
1488	2009	0.036651693161	7504
1488	148234	3.036651693161	7504
1488	544111	9.036651693161	7504
1490	2009	0.036651693161	0
1490	148234	3.036651693161	0
1490	544111	9.036651693161	0
1501	2009	0.036651693161	0
1501	148234	3.036651693161	0
1501	544111	9.036651693161	0
1511	2236	0.040940929686	7504
1511	148466	3.040940929686	7504
1511	544392	9.040940929686	7504
1512	2236	0.040940929686	7504
1512	148466	3.040940929686	7504
1512	544392	9.040940929686	7504
1514	2236	0.040940929686	0
1514	148466	3.040940929686	0
1514	544392	9.040940929686	0
1525	2236	0.040940929686	0
1525	148466	3.040940929686	0
1525	544392	9.040940929686	0
1535	2650	0.04821039218	7504
1535	148888	3.04821039218	7504
1535	544897	9.04821039218	7504
1536	2650	0.04821039218	7504
1536	148888	3.04821039218	7504
1536	544897	9.04821039218	7504
1538	2650	0.04821039218	0
1538	148888	3.04821039218	0
1538	544897	9.04821039218	0
1549	2650	0.04821039218	0
1549	148888	3.04821039218	0
1549	544897	9.04821039218	0
1559	3090	0.055890854003	7504
1559	149286	3.055890854003	7504
1559	545349	9.055890854003	7504
1560	3090	0.055890854003	7504
1560	149286	3.055890854003	7504
1560	545349	9.055890854003	7504
1562	3090	0.055890854003	0
1562	149286	3.055890854003	0
1562	545349	9.055890854003	0
1573	3090	0.055890854003	0
1573	149286	3.055890854003	0
1573	545349	9.055890854003	0
1583	3325	0.057963030662	7504
1583	149421	3.057963030662	7504
1583	545500	9.057963030662	7504
1584	3325	0.057963030662	7504
1584	149421	3.057963030662	7504
1584	545500	9.057963030662	7504
1586	3325	0.057963030662	0
1586	149421	3.057963030662	0
1586	545500	9.057963030662	0
1597	3325	0.057963030662	0
1597	149421	3.057963030662	0
1597	545500	9.057963030662	0
1607	3655	0.063891002787	7504
1607	149774	3.063891002787	7504
1607	545908	9.063891002787	7504
1608	3655	0.063891002787	7504
1608	149774	3.063891002787	7504
1608	545908	9.063891002787	7504
1610	3655	0.063891002787	0
1610	149774	3.063891002787	0
1610	545908	9.063891002787	0
1621	3655	0.063891002787	0
1621	149774	3.063891002787	0
1621	545908	9.063891002787	0
1631	3694	0.064770889489	7504
1631	149826	3.064770889489	7504
1631	545973	9.064770889489	7504
1632	3694	0.064770889489	7504
1632	149826	3.064770889489	7504
1632	545973	9.064770889489	7504
1634	3694	0.064770889489	0
1634	149826	3.064770889489	0
1634	545973	9.064770889489	0
1645	3694	0.064770889489	0
1645	149826	3.064770889489	0
1645	545973	9.064770889489	0
1655	4492	0.079275280847	7504
1655	150754	3.079275280847	7504
1655	546998	9.079275280847	7504
1656	4492	0.079275280847	7504
1656	150754	3.079275280847	7504
1656	546998	9.079275280847	7504
1658	4492	0.079275280847	0
1658	150754	3.079275280847	0
1658	546998	9.079275280847	0
1669	4492	0.079275280847	0
1669	150754	3.079275280847	0
1669	546998	9.079275280847	0
1679	4701	0.082257983647	7504
1679	150941	3.082257983647	7504
1679	547198	9.082257983647	7504
1680	4701	0.082257983647	7504
1680	150941	3.082257983647	7504
1680	547198	9.082257983647	7504
1682	4701	0.082257983647	0
1682	150941	3.082257983647	0
1682	547198	9.082257983647	0
1693	4701	0.082257983647	0
1693	150941	3.082257983647	0
1693	547198	9.082257983647	0
1703	5047	0.088577514598	7504
1703	151327	3.088577514598	7504
1703	547614	9.088577514598	7504
1704	5047	0.088577514598	7504
1704	151327	3.088577514598	7504
1704	547614	9.088577514598	7504
1706	5047	0.088577514598	0
1706	151327	3.088577514598	0
1706	547614	9.088577514598	0
1717	5047	0.088577514598	0
1717	151327	3.088577514598	0
1717	547614	9.088577514598	0
1727	5055	0.088784986169	7504
1727	151334	3.088784986169	7504
1727	547621	9.088784986169	7504
1728	5055	0.088784986169	7504
1728	151334	3.088784986169	7504
1728	547621	9.088784986169	7504
1730	5055	0.088784986169	0
1730	151334	3.088784986169	0
1730	547621	9.088784986169	0
1741	5055	0.088784986169	0
1741	151334	3.088784986169	0
1741	547621	9.088784986169	0
1751	5497	0.096236986774	7504
1751	151872	3.096236986774	7504
1751	548179	9.096236986774	7504
1752	5497	0.096236986774	7504
1752	151872	3.096236986774	7504
1752	548179	9.096236986774	7504
1754	5497	0.096236986774	0
1754	151872	3.096236986774	0
1754	548179	9.096236986774	0
1765	5497	0.096236986774	0
1765	151872	3.096236986774	0
1765	548179	9.096236986774	0
1775	5505	0.09658703896	7504
1775	151879	3.09658703896	7504
1775	548186	9.09658703896	7504
1776	5505	0.09658703896	7504
1776	151879	3.09658703896	7504
1776	548186	9.09658703896	7504
1778	5505	0.09658703896	0
1778	151879	3.09658703896	0
1778	548186	9.09658703896	0
1789	5505	0.09658703896	0
1789	151879	3.09658703896	0
1789	548186	9.09658703896	0
