version 2
run CAIN-21-20200513-18:36:46-28316
attr configname CAIN
attr datetime 20200513-18:36:46
attr dist 200
attr experiment CAIN
attr inifile omnetpp.ini
attr iterationvars "$numUe=20, $pwr=-50, $dist=200, $mob=\"./movements/RWPRPGM-0.0.movements\""
attr iterationvars2 "$numUe=20, $pwr=-50, $dist=200, $mob=\"./movements/RWPRPGM-0.0.movements\", $repetition=1"
attr measurement "$numUe=20, $pwr=-50, $dist=200, $mob=\"./movements/RWPRPGM-0.0.movements\""
attr mob "\"./movements/RWPRPGM-0.0.movements\""
attr network lte.simulations.networks.CAIN
attr numUe 20
attr processid 28316
attr pwr -50
attr repetition 1
attr replication #1
attr resultdir results
attr runnumber 21
attr seedset 1
param **.**.amcMode "\"AUTO\""
param **.amcMode "\"D2D\""
param **.cainNetwork true
param **.channelControl.alpha 1.0
param **.channelControl.carrierFrequency 2100e+6Hz
param **.channelControl.pMax 10W
param **.d2dCqi 7
param **.deployer.numRbDl 50
param **.deployer.numRbUl 50
param **.distThresh ${dist=200}
param **.fbDelay 1
param **.feedbackComputation "xmldoc(\"config_channel.xml\")"
param **.mobility.constraintAreaMaxX 1000m
param **.mobility.constraintAreaMaxY 1000m
param **.mobility.constraintAreaMaxZ 0m
param **.mobility.constraintAreaMinX 0m
param **.mobility.constraintAreaMinY 0m
param **.mobility.constraintAreaMinZ 0m
param **.nic.phy.channelModel "xmldoc(\"config_channel.xml\")"
param **.numBands 50
param **.pwrThresh "${pwr= -50}"
param **.qtdThresh 3
param **.rbAllocationType "\"localized\""
param **.routingRecorder.enabled false
param **.tcpApp[*].tClose -1s
param **.ueD2DTx[*].mobility.changeAngleBy "normal(0deg, 30deg)"
param **.ueD2DTx[*].mobility.changeInterval "normal(5s, 0.1s)"
param **.ueD2DTx[*].mobility.nodeId -1
param **.ueD2DTx[*].mobility.speed "normal(2mps, 0.01mps)"
param **.ueD2DTx[*].mobility.traceFile "${mob=\"./movements/RWP-0.0.movements\",\"./movements/RWP-0.5.movements\",\"./movements/RPGM-0.0.movements\",\"./movements/RPGM-0.5.movements\",\"./movements/RWPRPGM-0.0.movements\",\"./movements/RWPRPGM-0.5.movements\"}"
param **.ueD2DTx[*].mobilityType "\"BonnMotionMobility\""
param **.usePreconfiguredTxParams false
param *.eNodeB*.numX2Apps 1
param *.eNodeB*.x2App[*].server.localPort "5000 + ancestorIndex(1)"
param *.eNodeB.d2dCapable false
param *.eNodeB.mobility.initFromDisplayString false
param *.eNodeB.mobility.initialX 300m
param *.eNodeB.mobility.initialY 300m
param *.eNodeB.nic.phy.enableD2DCqiReporting true
param *.eNodeB.txPower 19952.62315mw
param *.eNodeB.x2App[0].client.connectAddress "\"eNodeB1%x2ppp0\""
param *.eNodeB1.d2dCapable true
param *.eNodeB1.mobility.initFromDisplayString false
param *.eNodeB1.mobility.initialX 700m
param *.eNodeB1.mobility.initialY 300m
param *.eNodeB1.nic.phy.enableD2DCqiReporting true
param *.eNodeB1.txPower 19952.62315mw
param *.eNodeB1.x2App[0].client.connectAddress "\"eNodeB%x2ppp0\""
param *.extCell[*].bandAllocationType "\"FULL_ALLOC\""
param *.extCell[*].bandUtilization 0.5
param *.extCell[*].txDirection "\"ANISOTROPIC\""
param *.extCell[*].txPower 20
param *.extCell[0].position_x 100m
param *.extCell[0].position_y 600m
param *.extCell[0].txAngle 315
param *.extCell[1].position_x 600m
param *.extCell[1].position_y 600m
param *.extCell[1].txAngle 225
param *.numExtCells 2
param *.numUeCell 0
param *.numUeD2DRx 1
param *.numUeD2DTx 1
param *.ue*.macCellId 1
param *.ue*.masterId 1
param *.ue*.mobility.initFromDisplayString false
param *.ue*[0].macCellId 1
param *.ue*[0].masterId 1
param *.ue*[0].mobility.initFromDisplayString false
param *.ueD2D*.numTcpApps 1
param *.ueD2D*[*].d2dCapable true
param *.ueD2D*[0].d2dCapable false
param *.ueD2D*[0].numTcpApps 1
param *.ueD2DRx[0].mobility.initialX 310m
param *.ueD2DRx[0].mobility.initialY 350m
param *.ueD2DRx[0].tcpApp[*].localPort 1000
param *.ueD2DRx[0].tcpApp[*].typename "\"TCPSinkApp\""
param *.ueD2DTx*.nic.d2dPeerAddresses "\"ueD2DTx[1]\""
param *.ueD2DTx*.tcpApp[*].connectAddress "\"ueD2DTx[0]\""
param *.ueD2DTx*.tcpApp[*].localAddress "\"ueD2DTx\""
param *.ueD2DTx*.tcpApp[*].localPort 1000
param *.ueD2DTx*.tcpApp[*].sendBytes 1GiB
param *.ueD2DTx*.tcpApp[*].typename "\"TCPSessionApp\""
param *.ueD2DTx*.tcpApp[0].active true
param *.ueD2DTx*.tcpApp[0].connectPort 1000
param *.ueD2DTx*.tcpApp[0].tOpen uniform(0.010s,0.1s)
param *.ueD2DTx*.tcpApp[0].tSend uniform(0.15s,0.5s)
param *.ueD2DTx[0].mobility.initialX 290m
param *.ueD2DTx[0].mobility.initialY 350m
param *.ueD2DTx[0].tcpApp[*].localPort 1000
param *.ueD2DTx[0].tcpApp[*].sendBytes 1GiB
param *.ueD2DTx[0].tcpApp[*].typename "\"TCPSessionApp\""
param *.ueD2DTx[0].tcpApp[0].active true
param *.ueD2DTx[0].tcpApp[0].connectAddress "\"ueD2DRx[0]\""
param *.ueD2DTx[0].tcpApp[0].connectPort 1000
param *.ueD2DTx[0].tcpApp[0].localAddress "\"ueD2DTx[0]\""
param *.ueD2DTx[0].tcpApp[0].tOpen uniform(0.010s,0.1s)
param *.ueD2DTx[0].tcpApp[0].tSend uniform(0.15s,0.5s)

vector 8  CAIN.server.ppp[0].queue  queueLength:vector  ETV
attr interpolationmode  sample-hold
attr title  "queue length, vector"
vector 9  CAIN.server.ppp[0].ppp  txState:vector  ETV
attr interpolationmode  sample-hold
attr title  "tx state, vector"
vector 24  CAIN.router.ppp[0].queue  queueLength:vector  ETV
attr interpolationmode  sample-hold
attr title  "queue length, vector"
vector 25  CAIN.router.ppp[0].ppp  txState:vector  ETV
attr interpolationmode  sample-hold
attr title  "tx state, vector"
vector 35  CAIN.router.ppp[1].queue  queueLength:vector  ETV
attr interpolationmode  sample-hold
attr title  "queue length, vector"
vector 36  CAIN.router.ppp[1].ppp  txState:vector  ETV
attr interpolationmode  sample-hold
attr title  "tx state, vector"
vector 56  CAIN.pgw.ppp[0].queue  queueLength:vector  ETV
attr interpolationmode  sample-hold
attr title  "queue length, vector"
vector 57  CAIN.pgw.ppp[0].ppp  txState:vector  ETV
attr interpolationmode  sample-hold
attr title  "tx state, vector"
vector 67  CAIN.pgw.ppp[1].queue  queueLength:vector  ETV
attr interpolationmode  sample-hold
attr title  "queue length, vector"
vector 68  CAIN.pgw.ppp[1].ppp  txState:vector  ETV
attr interpolationmode  sample-hold
attr title  "tx state, vector"
vector 78  CAIN.pgw.pppInterface.queue  queueLength:vector  ETV
attr interpolationmode  sample-hold
attr title  "queue length, vector"
vector 79  CAIN.pgw.pppInterface.ppp  txState:vector  ETV
attr interpolationmode  sample-hold
attr title  "tx state, vector"
vector 120  CAIN.eNodeB.pppIf.queue  queueLength:vector  ETV
attr interpolationmode  sample-hold
attr title  "queue length, vector"
vector 121  CAIN.eNodeB.pppIf.ppp  txState:vector  ETV
attr interpolationmode  sample-hold
attr title  "tx state, vector"
vector 131  CAIN.eNodeB.x2ppp[0].queue  queueLength:vector  ETV
attr interpolationmode  sample-hold
attr title  "queue length, vector"
vector 132  CAIN.eNodeB.x2ppp[0].ppp  txState:vector  ETV
attr interpolationmode  sample-hold
attr title  "tx state, vector"
vector 178  CAIN.eNodeB1.pppIf.queue  queueLength:vector  ETV
attr interpolationmode  sample-hold
attr title  "queue length, vector"
vector 179  CAIN.eNodeB1.pppIf.ppp  txState:vector  ETV
attr interpolationmode  sample-hold
attr title  "tx state, vector"
vector 189  CAIN.eNodeB1.x2ppp[0].queue  queueLength:vector  ETV
attr interpolationmode  sample-hold
attr title  "queue length, vector"
vector 190  CAIN.eNodeB1.x2ppp[0].ppp  txState:vector  ETV
attr interpolationmode  sample-hold
attr title  "tx state, vector"
vector 231  CAIN.ueD2DTx[0].nic.phy  servingCell:vector  ETV
attr source  servingCell
attr title  "ID of the serving eNodeB for the UE, vector"
attr unit  ""
vector 263  CAIN.ueD2DTx[1].nic.phy  servingCell:vector  ETV
attr source  servingCell
attr title  "ID of the serving eNodeB for the UE, vector"
attr unit  ""
vector 295  CAIN.ueD2DTx[2].nic.phy  servingCell:vector  ETV
attr source  servingCell
attr title  "ID of the serving eNodeB for the UE, vector"
attr unit  ""
vector 327  CAIN.ueD2DTx[3].nic.phy  servingCell:vector  ETV
attr source  servingCell
attr title  "ID of the serving eNodeB for the UE, vector"
attr unit  ""
vector 359  CAIN.ueD2DTx[4].nic.phy  servingCell:vector  ETV
attr source  servingCell
attr title  "ID of the serving eNodeB for the UE, vector"
attr unit  ""
vector 391  CAIN.ueD2DTx[5].nic.phy  servingCell:vector  ETV
attr source  servingCell
attr title  "ID of the serving eNodeB for the UE, vector"
attr unit  ""
vector 423  CAIN.ueD2DTx[6].nic.phy  servingCell:vector  ETV
attr source  servingCell
attr title  "ID of the serving eNodeB for the UE, vector"
attr unit  ""
vector 455  CAIN.ueD2DTx[7].nic.phy  servingCell:vector  ETV
attr source  servingCell
attr title  "ID of the serving eNodeB for the UE, vector"
attr unit  ""
vector 487  CAIN.ueD2DTx[8].nic.phy  servingCell:vector  ETV
attr source  servingCell
attr title  "ID of the serving eNodeB for the UE, vector"
attr unit  ""
vector 519  CAIN.ueD2DTx[9].nic.phy  servingCell:vector  ETV
attr source  servingCell
attr title  "ID of the serving eNodeB for the UE, vector"
attr unit  ""
vector 551  CAIN.ueD2DTx[10].nic.phy  servingCell:vector  ETV
attr source  servingCell
attr title  "ID of the serving eNodeB for the UE, vector"
attr unit  ""
vector 583  CAIN.ueD2DTx[11].nic.phy  servingCell:vector  ETV
attr source  servingCell
attr title  "ID of the serving eNodeB for the UE, vector"
attr unit  ""
vector 615  CAIN.ueD2DTx[12].nic.phy  servingCell:vector  ETV
attr source  servingCell
attr title  "ID of the serving eNodeB for the UE, vector"
attr unit  ""
vector 647  CAIN.ueD2DTx[13].nic.phy  servingCell:vector  ETV
attr source  servingCell
attr title  "ID of the serving eNodeB for the UE, vector"
attr unit  ""
vector 679  CAIN.ueD2DTx[14].nic.phy  servingCell:vector  ETV
attr source  servingCell
attr title  "ID of the serving eNodeB for the UE, vector"
attr unit  ""
vector 711  CAIN.ueD2DTx[15].nic.phy  servingCell:vector  ETV
attr source  servingCell
attr title  "ID of the serving eNodeB for the UE, vector"
attr unit  ""
vector 743  CAIN.ueD2DTx[16].nic.phy  servingCell:vector  ETV
attr source  servingCell
attr title  "ID of the serving eNodeB for the UE, vector"
attr unit  ""
vector 775  CAIN.ueD2DTx[17].nic.phy  servingCell:vector  ETV
attr source  servingCell
attr title  "ID of the serving eNodeB for the UE, vector"
attr unit  ""
vector 807  CAIN.ueD2DTx[18].nic.phy  servingCell:vector  ETV
attr source  servingCell
attr title  "ID of the serving eNodeB for the UE, vector"
attr unit  ""
vector 839  CAIN.ueD2DTx[19].nic.phy  servingCell:vector  ETV
attr source  servingCell
attr title  "ID of the serving eNodeB for the UE, vector"
attr unit  ""
vector 863  CAIN.eNodeB.sctp  "Throughput of Association 3"  ETV
vector 885  CAIN.eNodeB1.sctp  "Throughput of Association 4"  ETV
vector 907  CAIN.eNodeB.sctp  "Throughput of Association 1"  ETV
vector 927  CAIN.eNodeB.sctp  "Fast Recovery State 1:10.0.5.2"  ETV
vector 956  CAIN.eNodeB1.sctp  "Throughput of Association 2"  ETV
vector 976  CAIN.eNodeB1.sctp  "Fast Recovery State 2:10.0.5.1"  ETV
vector 128  CAIN.eNodeB.x2ppp[0].queue  rcvdPk:vector(packetBytes)  ETV
attr interpolationmode  none
attr title  "received packets, vector(packetBytes)"
vector 130  CAIN.eNodeB.x2ppp[0].queue  queueingTime:vector  ETV
attr interpolationmode  none
attr title  "queueing time, vector"
vector 186  CAIN.eNodeB1.x2ppp[0].queue  rcvdPk:vector(packetBytes)  ETV
attr interpolationmode  none
attr title  "received packets, vector(packetBytes)"
vector 188  CAIN.eNodeB1.x2ppp[0].queue  queueingTime:vector  ETV
attr interpolationmode  none
attr title  "queueing time, vector"
vector 137  CAIN.eNodeB.x2ppp[0].ppp  rcvdPkFromHL:vector(packetBytes)  ETV
attr interpolationmode  none
attr source  packetReceivedFromUpper
attr title  "packets received from higher layer, vector(packetBytes)"
vector 133  CAIN.eNodeB.x2ppp[0].ppp  txPk:vector(packetBytes)  ETV
attr interpolationmode  none
attr source  packetSentToLower
attr title  "packets transmitted, vector(packetBytes)"
vector 195  CAIN.eNodeB1.x2ppp[0].ppp  rcvdPkFromHL:vector(packetBytes)  ETV
attr interpolationmode  none
attr source  packetReceivedFromUpper
attr title  "packets received from higher layer, vector(packetBytes)"
vector 191  CAIN.eNodeB1.x2ppp[0].ppp  txPk:vector(packetBytes)  ETV
attr interpolationmode  none
attr source  packetSentToLower
attr title  "packets transmitted, vector(packetBytes)"
vector 192  CAIN.eNodeB1.x2ppp[0].ppp  rxPkOk:vector(packetBytes)  ETV
attr interpolationmode  none
attr source  rxPkOk
attr title  "packets received OK, vector(packetBytes)"
vector 196  CAIN.eNodeB1.x2ppp[0].ppp  passedUpPk:vector(packetBytes)  ETV
attr interpolationmode  none
attr source  packetSentToUpper
attr title  "packets passed to higher layer, vector(packetBytes)"
vector 134  CAIN.eNodeB.x2ppp[0].ppp  rxPkOk:vector(packetBytes)  ETV
attr interpolationmode  none
attr source  rxPkOk
attr title  "packets received OK, vector(packetBytes)"
vector 138  CAIN.eNodeB.x2ppp[0].ppp  passedUpPk:vector(packetBytes)  ETV
attr interpolationmode  none
attr source  packetSentToUpper
attr title  "packets passed to higher layer, vector(packetBytes)"
vector 1005  CAIN.eNodeB1.sctp  "Throughput of Association 4"  ETV
vector 882  CAIN.eNodeB1.sctp  "Peer Rwnd 4"  ETV
vector 1025  CAIN.eNodeB1.sctp  "Fast Recovery State 5:10.0.4.1"  ETV
vector 1052  CAIN.eNodeB1.sctp  "Fast Recovery State 5:10.0.2.2"  ETV
vector 1079  CAIN.eNodeB1.sctp  "Fast Recovery State 5:10.0.5.1"  ETV
vector 1108  CAIN.eNodeB.sctp  "Throughput of Association 3"  ETV
vector 860  CAIN.eNodeB.sctp  "Peer Rwnd 3"  ETV
vector 1128  CAIN.eNodeB.sctp  "Fast Recovery State 6:10.0.4.2"  ETV
vector 1155  CAIN.eNodeB.sctp  "Fast Recovery State 6:10.0.3.2"  ETV
vector 1182  CAIN.eNodeB.sctp  "Fast Recovery State 6:10.0.5.2"  ETV
vector 904  CAIN.eNodeB.sctp  "Peer Rwnd 1"  ETV
vector 1209  CAIN.eNodeB.sctp  "Fast Recovery State 1:10.0.4.2"  ETV
vector 1236  CAIN.eNodeB.sctp  "Fast Recovery State 1:10.0.3.2"  ETV
vector 953  CAIN.eNodeB1.sctp  "Peer Rwnd 2"  ETV
vector 1263  CAIN.eNodeB1.sctp  "Fast Recovery State 2:10.0.4.1"  ETV
vector 1290  CAIN.eNodeB1.sctp  "Fast Recovery State 2:10.0.2.2"  ETV
vector 1035  CAIN.eNodeB1.sctp  "Slow Start Threshold 5:10.0.2.2"  ETV
vector 1036  CAIN.eNodeB1.sctp  "Congestion Window 5:10.0.2.2"  ETV
vector 1037  CAIN.eNodeB1.sctp  "Bandwidth 5:10.0.2.2"  ETV
vector 1040  CAIN.eNodeB1.sctp  "HB Sent 5:10.0.2.2"  ETV
vector 1033  CAIN.eNodeB1.sctp  "RTO 5:10.0.2.2"  ETV
vector 1008  CAIN.eNodeB1.sctp  "Slow Start Threshold 5:10.0.4.1"  ETV
vector 1009  CAIN.eNodeB1.sctp  "Congestion Window 5:10.0.4.1"  ETV
vector 1010  CAIN.eNodeB1.sctp  "Bandwidth 5:10.0.4.1"  ETV
vector 1013  CAIN.eNodeB1.sctp  "HB Sent 5:10.0.4.1"  ETV
vector 1006  CAIN.eNodeB1.sctp  "RTO 5:10.0.4.1"  ETV
vector 1062  CAIN.eNodeB1.sctp  "Slow Start Threshold 5:10.0.5.1"  ETV
vector 1063  CAIN.eNodeB1.sctp  "Congestion Window 5:10.0.5.1"  ETV
vector 1064  CAIN.eNodeB1.sctp  "Bandwidth 5:10.0.5.1"  ETV
vector 1060  CAIN.eNodeB1.sctp  "RTO 5:10.0.5.1"  ETV
vector 1138  CAIN.eNodeB.sctp  "Slow Start Threshold 6:10.0.3.2"  ETV
vector 1139  CAIN.eNodeB.sctp  "Congestion Window 6:10.0.3.2"  ETV
vector 1140  CAIN.eNodeB.sctp  "Bandwidth 6:10.0.3.2"  ETV
vector 1143  CAIN.eNodeB.sctp  "HB Sent 6:10.0.3.2"  ETV
vector 1136  CAIN.eNodeB.sctp  "RTO 6:10.0.3.2"  ETV
vector 1111  CAIN.eNodeB.sctp  "Slow Start Threshold 6:10.0.4.2"  ETV
vector 1112  CAIN.eNodeB.sctp  "Congestion Window 6:10.0.4.2"  ETV
vector 1113  CAIN.eNodeB.sctp  "Bandwidth 6:10.0.4.2"  ETV
vector 1116  CAIN.eNodeB.sctp  "HB Sent 6:10.0.4.2"  ETV
vector 1109  CAIN.eNodeB.sctp  "RTO 6:10.0.4.2"  ETV
vector 1165  CAIN.eNodeB.sctp  "Slow Start Threshold 6:10.0.5.2"  ETV
vector 1166  CAIN.eNodeB.sctp  "Congestion Window 6:10.0.5.2"  ETV
vector 1167  CAIN.eNodeB.sctp  "Bandwidth 6:10.0.5.2"  ETV
vector 1163  CAIN.eNodeB.sctp  "RTO 6:10.0.5.2"  ETV
vector 916  CAIN.eNodeB.sctp  "HB ACK Sent 1:10.0.5.2"  ETV
vector 917  CAIN.eNodeB.sctp  "HB Received 1:10.0.5.2"  ETV
vector 965  CAIN.eNodeB1.sctp  "HB ACK Sent 2:10.0.5.1"  ETV
vector 966  CAIN.eNodeB1.sctp  "HB Received 2:10.0.5.1"  ETV
vector 1219  CAIN.eNodeB.sctp  "Slow Start Threshold 1:10.0.3.2"  ETV
vector 1220  CAIN.eNodeB.sctp  "Congestion Window 1:10.0.3.2"  ETV
vector 1221  CAIN.eNodeB.sctp  "Bandwidth 1:10.0.3.2"  ETV
vector 1224  CAIN.eNodeB.sctp  "HB Sent 1:10.0.3.2"  ETV
vector 1217  CAIN.eNodeB.sctp  "RTO 1:10.0.3.2"  ETV
vector 1192  CAIN.eNodeB.sctp  "Slow Start Threshold 1:10.0.4.2"  ETV
vector 1193  CAIN.eNodeB.sctp  "Congestion Window 1:10.0.4.2"  ETV
vector 1194  CAIN.eNodeB.sctp  "Bandwidth 1:10.0.4.2"  ETV
vector 1197  CAIN.eNodeB.sctp  "HB Sent 1:10.0.4.2"  ETV
vector 1190  CAIN.eNodeB.sctp  "RTO 1:10.0.4.2"  ETV
vector 910  CAIN.eNodeB.sctp  "Slow Start Threshold 1:10.0.5.2"  ETV
vector 911  CAIN.eNodeB.sctp  "Congestion Window 1:10.0.5.2"  ETV
vector 912  CAIN.eNodeB.sctp  "Bandwidth 1:10.0.5.2"  ETV
vector 908  CAIN.eNodeB.sctp  "RTO 1:10.0.5.2"  ETV
vector 1273  CAIN.eNodeB1.sctp  "Slow Start Threshold 2:10.0.2.2"  ETV
vector 1274  CAIN.eNodeB1.sctp  "Congestion Window 2:10.0.2.2"  ETV
vector 1275  CAIN.eNodeB1.sctp  "Bandwidth 2:10.0.2.2"  ETV
vector 1278  CAIN.eNodeB1.sctp  "HB Sent 2:10.0.2.2"  ETV
vector 1271  CAIN.eNodeB1.sctp  "RTO 2:10.0.2.2"  ETV
vector 1246  CAIN.eNodeB1.sctp  "Slow Start Threshold 2:10.0.4.1"  ETV
vector 1247  CAIN.eNodeB1.sctp  "Congestion Window 2:10.0.4.1"  ETV
vector 1248  CAIN.eNodeB1.sctp  "Bandwidth 2:10.0.4.1"  ETV
vector 1251  CAIN.eNodeB1.sctp  "HB Sent 2:10.0.4.1"  ETV
vector 1244  CAIN.eNodeB1.sctp  "RTO 2:10.0.4.1"  ETV
vector 959  CAIN.eNodeB1.sctp  "Slow Start Threshold 2:10.0.5.1"  ETV
vector 960  CAIN.eNodeB1.sctp  "Congestion Window 2:10.0.5.1"  ETV
vector 961  CAIN.eNodeB1.sctp  "Bandwidth 2:10.0.5.1"  ETV
vector 957  CAIN.eNodeB1.sctp  "RTO 2:10.0.5.1"  ETV
vector 1173  CAIN.eNodeB.sctp  "HB ACK Received 6:10.0.5.2"  ETV
vector 1164  CAIN.eNodeB.sctp  "RTT 6:10.0.5.2"  ETV
vector 1070  CAIN.eNodeB1.sctp  "HB ACK Received 5:10.0.5.1"  ETV
vector 1061  CAIN.eNodeB1.sctp  "RTT 5:10.0.5.1"  ETV
vector 1171  CAIN.eNodeB.sctp  "HB ACK Sent 6:10.0.5.2"  ETV
vector 1172  CAIN.eNodeB.sctp  "HB Received 6:10.0.5.2"  ETV
vector 1068  CAIN.eNodeB1.sctp  "HB ACK Sent 5:10.0.5.1"  ETV
vector 1069  CAIN.eNodeB1.sctp  "HB Received 5:10.0.5.1"  ETV
vector 967  CAIN.eNodeB1.sctp  "HB ACK Received 2:10.0.5.1"  ETV
vector 958  CAIN.eNodeB1.sctp  "RTT 2:10.0.5.1"  ETV
vector 918  CAIN.eNodeB.sctp  "HB ACK Received 1:10.0.5.2"  ETV
vector 909  CAIN.eNodeB.sctp  "RTT 1:10.0.5.2"  ETV
vector 96  CAIN.eNodeB.nic.mac  receivedPacketFromLowerLayer:vector(packetBytes)  ETV
attr interpolationmode  none
attr source  receivedPacketFromLowerLayer
vector 1305  CAIN.eNodeB.sctp  "SendQueue of Association 6"  ETV
vector 1168  CAIN.eNodeB.sctp  "TSN Sent 6:10.0.5.2"  ETV
vector 1175  CAIN.eNodeB.sctp  "Outstanding Bytes 6:10.0.5.2"  ETV
vector 848  CAIN.eNodeB.sctp  "Outstanding Bytes 3:Total"  ETV
vector 1174  CAIN.eNodeB.sctp  "Queued Sent Bytes 6:10.0.5.2"  ETV
vector 847  CAIN.eNodeB.sctp  "Queued Sent Bytes 3:Total"  ETV
vector 963  CAIN.eNodeB1.sctp  "TSN Received 2:10.0.5.1"  ETV
vector 939  CAIN.eNodeB1.sctp  "Queued Received Bytes 2:Total"  ETV
vector 935  CAIN.eNodeB1.sctp  "Advertised Receiver Window 2"  ETV
vector 944  CAIN.eNodeB1.sctp  "Number of Total Gap Blocks Stored 2"  ETV
vector 945  CAIN.eNodeB1.sctp  "Number of Revokable Gap Blocks Stored 2"  ETV
vector 946  CAIN.eNodeB1.sctp  "Number of Non-Revokable Gap Blocks Stored 2"  ETV
vector 947  CAIN.eNodeB1.sctp  "Number of Duplicate TSNs Stored 2"  ETV
vector 951  CAIN.eNodeB1.sctp  "Length of SACK Sent 2"  ETV
vector 948  CAIN.eNodeB1.sctp  "Number of Revokable Gap Blocks Sent 2"  ETV
vector 949  CAIN.eNodeB1.sctp  "Number of Non-Revokable Gap Blocks Sent 2"  ETV
vector 950  CAIN.eNodeB1.sctp  "Number of Duplicate TSNs Sent 2"  ETV
vector 955  CAIN.eNodeB1.sctp  "End to End Delay of Association 2"  ETV
vector 199  CAIN.eNodeB1.x2App[0].client  rcvdPk:vector(packetBytes)  ETV
attr interpolationmode  none
attr source  rcvdPk
attr title  "packets received, vector(packetBytes)"
vector 1304  CAIN.eNodeB.sctp  "Number of Gap Blocks in Last SACK of Association 6"  ETV
vector 849  CAIN.eNodeB.sctp  "Number of Revokable Gap Blocks in SACK 3"  ETV
vector 850  CAIN.eNodeB.sctp  "Number of Non-Revokable Gap Blocks in SACK 3"  ETV
vector 1185  CAIN.eNodeB.sctp  "TSN Acked CumAck 6:10.0.5.2"  ETV
vector 1151  CAIN.eNodeB.sctp  "Number of Gap Acked Chunks in Last SACK 6:10.0.3.2"  ETV
vector 1152  CAIN.eNodeB.sctp  "Number of Non-Revokable Gap Acked Chunks in Last SACK 6:10.0.3.2"  ETV
vector 1153  CAIN.eNodeB.sctp  "Number of Gap Missed Chunks in Last SACK 6:10.0.3.2"  ETV
vector 1124  CAIN.eNodeB.sctp  "Number of Gap Acked Chunks in Last SACK 6:10.0.4.2"  ETV
vector 1125  CAIN.eNodeB.sctp  "Number of Non-Revokable Gap Acked Chunks in Last SACK 6:10.0.4.2"  ETV
vector 1126  CAIN.eNodeB.sctp  "Number of Gap Missed Chunks in Last SACK 6:10.0.4.2"  ETV
vector 1178  CAIN.eNodeB.sctp  "Number of Gap Acked Chunks in Last SACK 6:10.0.5.2"  ETV
vector 1179  CAIN.eNodeB.sctp  "Number of Non-Revokable Gap Acked Chunks in Last SACK 6:10.0.5.2"  ETV
vector 1180  CAIN.eNodeB.sctp  "Number of Gap Missed Chunks in Last SACK 6:10.0.5.2"  ETV
vector 859  CAIN.eNodeB.sctp  "Arwnd in Last SACK 3"  ETV
vector 1187  CAIN.eNodeB.sctp  "TSN PseudoCumAck 6:10.0.5.2"  ETV
vector 1188  CAIN.eNodeB.sctp  "TSN RTXPseudoCumAck 6:10.0.5.2"  ETV
vector 1181  CAIN.eNodeB.sctp  "Partial Bytes Acked 6:10.0.5.2"  ETV
vector 1333  CAIN.ueD2DTx[13].tcp  tcpRcvQueueBytes  ETV
vector 1320  CAIN.ueD2DTx[13].tcp  "advertised window"  ETV
vector 1319  CAIN.ueD2DTx[13].tcp  "receive window"  ETV
vector 1322  CAIN.ueD2DTx[13].tcp  "sent ack"  ETV
vector 621  CAIN.ueD2DTx[13].nic.pdcpRrc  receivedPacketFromUpperLayer:vector(packetBytes)  ETV
attr interpolationmode  none
attr source  receivedPacketFromUpperLayer
vector 624  CAIN.ueD2DTx[13].nic.pdcpRrc  sentPacketToLowerLayer:vector(packetBytes)  ETV
attr interpolationmode  none
attr source  sentPacketToLowerLayer
vector 625  CAIN.ueD2DTx[13].nic.mac  receivedPacketFromUpperLayer:vector(packetBytes)  ETV
attr interpolationmode  none
attr source  receivedPacketFromUpperLayer
vector 635  CAIN.ueD2DTx[13].nic.mac  CainHopMessageSent:vector  ETV
attr interpolationmode  none
attr title  "# of Sent CAIN hop message, vector"
vector 628  CAIN.ueD2DTx[13].nic.mac  sentPacketToLowerLayer:vector(packetBytes)  ETV
attr interpolationmode  none
attr source  sentPacketToLowerLayer
vector 466  CAIN.ueD2DTx[8].nic.mac  receivedPacketFromLowerLayer:vector(packetBytes)  ETV
attr interpolationmode  none
attr source  receivedPacketFromLowerLayer
vector 468  CAIN.ueD2DTx[8].nic.mac  sentPacketToLowerLayer:vector(packetBytes)  ETV
attr interpolationmode  none
attr source  sentPacketToLowerLayer
vector 690  CAIN.ueD2DTx[15].nic.mac  receivedPacketFromLowerLayer:vector(packetBytes)  ETV
attr interpolationmode  none
attr source  receivedPacketFromLowerLayer
vector 692  CAIN.ueD2DTx[15].nic.mac  sentPacketToLowerLayer:vector(packetBytes)  ETV
attr interpolationmode  none
attr source  sentPacketToLowerLayer
vector 111  CAIN.eNodeB.nic.mac  racpkt:vector  ETV
attr interpolationmode  none
attr title  "eNB received racpkt message, vector"
vector 112  CAIN.eNodeB.nic.mac  racDistanceSignal:vector  ETV
attr interpolationmode  none
attr title  "Rac distance to enb, vector"
vector 113  CAIN.eNodeB.nic.mac  racServedDevsSignal:vector  ETV
attr interpolationmode  none
attr title  "# of devices served on rac arriavall, vector"
vector 106  CAIN.eNodeB.nic.mac  DistanceSignal:vector  ETV
attr interpolationmode  none
attr title  "Distance to enb, vector"
vector 101  CAIN.eNodeB.nic.mac  CainHopMessage:vector  ETV
attr interpolationmode  none
attr title  "eNB received CAIN hop message, vector"
vector 98  CAIN.eNodeB.nic.mac  sentPacketToLowerLayer:vector(packetBytes)  ETV
attr interpolationmode  none
attr source  sentPacketToLowerLayer
vector 697  CAIN.ueD2DTx[15].nic.mac  DropedHopMessage:vector  ETV
attr interpolationmode  none
attr title  "Droped Hop CAIN message due to RB not available, vector"
vector 1357  CAIN.ueD2DTx[18].tcp  tcpRcvQueueBytes  ETV
vector 1344  CAIN.ueD2DTx[18].tcp  "advertised window"  ETV
vector 1343  CAIN.ueD2DTx[18].tcp  "receive window"  ETV
vector 1346  CAIN.ueD2DTx[18].tcp  "sent ack"  ETV
vector 781  CAIN.ueD2DTx[18].nic.pdcpRrc  receivedPacketFromUpperLayer:vector(packetBytes)  ETV
attr interpolationmode  none
attr source  receivedPacketFromUpperLayer
vector 784  CAIN.ueD2DTx[18].nic.pdcpRrc  sentPacketToLowerLayer:vector(packetBytes)  ETV
attr interpolationmode  none
attr source  sentPacketToLowerLayer
vector 785  CAIN.ueD2DTx[18].nic.mac  receivedPacketFromUpperLayer:vector(packetBytes)  ETV
attr interpolationmode  none
attr source  receivedPacketFromUpperLayer
vector 795  CAIN.ueD2DTx[18].nic.mac  CainHopMessageSent:vector  ETV
attr interpolationmode  none
attr title  "# of Sent CAIN hop message, vector"
vector 788  CAIN.ueD2DTx[18].nic.mac  sentPacketToLowerLayer:vector(packetBytes)  ETV
attr interpolationmode  none
attr source  sentPacketToLowerLayer
vector 594  CAIN.ueD2DTx[12].nic.mac  receivedPacketFromLowerLayer:vector(packetBytes)  ETV
attr interpolationmode  none
attr source  receivedPacketFromLowerLayer
vector 596  CAIN.ueD2DTx[12].nic.mac  sentPacketToLowerLayer:vector(packetBytes)  ETV
attr interpolationmode  none
attr source  sentPacketToLowerLayer
vector 498  CAIN.ueD2DTx[9].nic.mac  receivedPacketFromLowerLayer:vector(packetBytes)  ETV
attr interpolationmode  none
attr source  receivedPacketFromLowerLayer
vector 500  CAIN.ueD2DTx[9].nic.mac  sentPacketToLowerLayer:vector(packetBytes)  ETV
attr interpolationmode  none
attr source  sentPacketToLowerLayer
vector 505  CAIN.ueD2DTx[9].nic.mac  DropedHopMessage:vector  ETV
attr interpolationmode  none
attr title  "Droped Hop CAIN message due to RB not available, vector"
vector 1381  CAIN.ueD2DTx[6].tcp  tcpRcvQueueBytes  ETV
vector 1368  CAIN.ueD2DTx[6].tcp  "advertised window"  ETV
vector 1367  CAIN.ueD2DTx[6].tcp  "receive window"  ETV
vector 1370  CAIN.ueD2DTx[6].tcp  "sent ack"  ETV
vector 397  CAIN.ueD2DTx[6].nic.pdcpRrc  receivedPacketFromUpperLayer:vector(packetBytes)  ETV
attr interpolationmode  none
attr source  receivedPacketFromUpperLayer
vector 400  CAIN.ueD2DTx[6].nic.pdcpRrc  sentPacketToLowerLayer:vector(packetBytes)  ETV
attr interpolationmode  none
attr source  sentPacketToLowerLayer
vector 401  CAIN.ueD2DTx[6].nic.mac  receivedPacketFromUpperLayer:vector(packetBytes)  ETV
attr interpolationmode  none
attr source  receivedPacketFromUpperLayer
vector 411  CAIN.ueD2DTx[6].nic.mac  CainHopMessageSent:vector  ETV
attr interpolationmode  none
attr title  "# of Sent CAIN hop message, vector"
vector 404  CAIN.ueD2DTx[6].nic.mac  sentPacketToLowerLayer:vector(packetBytes)  ETV
attr interpolationmode  none
attr source  sentPacketToLowerLayer
vector 1405  CAIN.ueD2DTx[14].tcp  tcpRcvQueueBytes  ETV
vector 1392  CAIN.ueD2DTx[14].tcp  "advertised window"  ETV
vector 1391  CAIN.ueD2DTx[14].tcp  "receive window"  ETV
vector 1394  CAIN.ueD2DTx[14].tcp  "sent ack"  ETV
vector 653  CAIN.ueD2DTx[14].nic.pdcpRrc  receivedPacketFromUpperLayer:vector(packetBytes)  ETV
attr interpolationmode  none
attr source  receivedPacketFromUpperLayer
vector 656  CAIN.ueD2DTx[14].nic.pdcpRrc  sentPacketToLowerLayer:vector(packetBytes)  ETV
attr interpolationmode  none
attr source  sentPacketToLowerLayer
vector 657  CAIN.ueD2DTx[14].nic.mac  receivedPacketFromUpperLayer:vector(packetBytes)  ETV
attr interpolationmode  none
attr source  receivedPacketFromUpperLayer
vector 667  CAIN.ueD2DTx[14].nic.mac  CainHopMessageSent:vector  ETV
attr interpolationmode  none
attr title  "# of Sent CAIN hop message, vector"
vector 660  CAIN.ueD2DTx[14].nic.mac  sentPacketToLowerLayer:vector(packetBytes)  ETV
attr interpolationmode  none
attr source  sentPacketToLowerLayer
vector 1429  CAIN.ueD2DTx[12].tcp  tcpRcvQueueBytes  ETV
vector 1416  CAIN.ueD2DTx[12].tcp  "advertised window"  ETV
vector 1415  CAIN.ueD2DTx[12].tcp  "receive window"  ETV
vector 1418  CAIN.ueD2DTx[12].tcp  "sent ack"  ETV
vector 589  CAIN.ueD2DTx[12].nic.pdcpRrc  receivedPacketFromUpperLayer:vector(packetBytes)  ETV
attr interpolationmode  none
attr source  receivedPacketFromUpperLayer
vector 592  CAIN.ueD2DTx[12].nic.pdcpRrc  sentPacketToLowerLayer:vector(packetBytes)  ETV
attr interpolationmode  none
attr source  sentPacketToLowerLayer
vector 593  CAIN.ueD2DTx[12].nic.mac  receivedPacketFromUpperLayer:vector(packetBytes)  ETV
attr interpolationmode  none
attr source  receivedPacketFromUpperLayer
vector 603  CAIN.ueD2DTx[12].nic.mac  CainHopMessageSent:vector  ETV
attr interpolationmode  none
attr title  "# of Sent CAIN hop message, vector"
vector 338  CAIN.ueD2DTx[4].nic.mac  receivedPacketFromLowerLayer:vector(packetBytes)  ETV
attr interpolationmode  none
attr source  receivedPacketFromLowerLayer
vector 340  CAIN.ueD2DTx[4].nic.mac  sentPacketToLowerLayer:vector(packetBytes)  ETV
attr interpolationmode  none
attr source  sentPacketToLowerLayer
vector 1453  CAIN.ueD2DTx[2].tcp  tcpRcvQueueBytes  ETV
vector 1440  CAIN.ueD2DTx[2].tcp  "advertised window"  ETV
vector 1439  CAIN.ueD2DTx[2].tcp  "receive window"  ETV
vector 1442  CAIN.ueD2DTx[2].tcp  "sent ack"  ETV
vector 269  CAIN.ueD2DTx[2].nic.pdcpRrc  receivedPacketFromUpperLayer:vector(packetBytes)  ETV
attr interpolationmode  none
attr source  receivedPacketFromUpperLayer
vector 272  CAIN.ueD2DTx[2].nic.pdcpRrc  sentPacketToLowerLayer:vector(packetBytes)  ETV
attr interpolationmode  none
attr source  sentPacketToLowerLayer
vector 273  CAIN.ueD2DTx[2].nic.mac  receivedPacketFromUpperLayer:vector(packetBytes)  ETV
attr interpolationmode  none
attr source  receivedPacketFromUpperLayer
vector 283  CAIN.ueD2DTx[2].nic.mac  CainHopMessageSent:vector  ETV
attr interpolationmode  none
attr title  "# of Sent CAIN hop message, vector"
vector 276  CAIN.ueD2DTx[2].nic.mac  sentPacketToLowerLayer:vector(packetBytes)  ETV
attr interpolationmode  none
attr source  sentPacketToLowerLayer
vector 1477  CAIN.ueD2DTx[15].tcp  tcpRcvQueueBytes  ETV
vector 1464  CAIN.ueD2DTx[15].tcp  "advertised window"  ETV
vector 1463  CAIN.ueD2DTx[15].tcp  "receive window"  ETV
vector 1466  CAIN.ueD2DTx[15].tcp  "sent ack"  ETV
vector 685  CAIN.ueD2DTx[15].nic.pdcpRrc  receivedPacketFromUpperLayer:vector(packetBytes)  ETV
attr interpolationmode  none
attr source  receivedPacketFromUpperLayer
vector 688  CAIN.ueD2DTx[15].nic.pdcpRrc  sentPacketToLowerLayer:vector(packetBytes)  ETV
attr interpolationmode  none
attr source  sentPacketToLowerLayer
vector 689  CAIN.ueD2DTx[15].nic.mac  receivedPacketFromUpperLayer:vector(packetBytes)  ETV
attr interpolationmode  none
attr source  receivedPacketFromUpperLayer
vector 1501  CAIN.ueD2DTx[3].tcp  tcpRcvQueueBytes  ETV
vector 1488  CAIN.ueD2DTx[3].tcp  "advertised window"  ETV
vector 1487  CAIN.ueD2DTx[3].tcp  "receive window"  ETV
vector 1490  CAIN.ueD2DTx[3].tcp  "sent ack"  ETV
vector 301  CAIN.ueD2DTx[3].nic.pdcpRrc  receivedPacketFromUpperLayer:vector(packetBytes)  ETV
attr interpolationmode  none
attr source  receivedPacketFromUpperLayer
vector 304  CAIN.ueD2DTx[3].nic.pdcpRrc  sentPacketToLowerLayer:vector(packetBytes)  ETV
attr interpolationmode  none
attr source  sentPacketToLowerLayer
vector 305  CAIN.ueD2DTx[3].nic.mac  receivedPacketFromUpperLayer:vector(packetBytes)  ETV
attr interpolationmode  none
attr source  receivedPacketFromUpperLayer
vector 315  CAIN.ueD2DTx[3].nic.mac  CainHopMessageSent:vector  ETV
attr interpolationmode  none
attr title  "# of Sent CAIN hop message, vector"
vector 308  CAIN.ueD2DTx[3].nic.mac  sentPacketToLowerLayer:vector(packetBytes)  ETV
attr interpolationmode  none
attr source  sentPacketToLowerLayer
vector 115  CAIN.eNodeB.nic.phy  averageCqiUlvect:vector  ETV
attr source  averageCqiUlvect
attr title  "Average Cqi reported in UL, vector"
attr unit  cqi
vector 1525  CAIN.ueD2DTx[8].tcp  tcpRcvQueueBytes  ETV
vector 1512  CAIN.ueD2DTx[8].tcp  "advertised window"  ETV
vector 1511  CAIN.ueD2DTx[8].tcp  "receive window"  ETV
vector 1514  CAIN.ueD2DTx[8].tcp  "sent ack"  ETV
vector 461  CAIN.ueD2DTx[8].nic.pdcpRrc  receivedPacketFromUpperLayer:vector(packetBytes)  ETV
attr interpolationmode  none
attr source  receivedPacketFromUpperLayer
vector 464  CAIN.ueD2DTx[8].nic.pdcpRrc  sentPacketToLowerLayer:vector(packetBytes)  ETV
attr interpolationmode  none
attr source  sentPacketToLowerLayer
vector 465  CAIN.ueD2DTx[8].nic.mac  receivedPacketFromUpperLayer:vector(packetBytes)  ETV
attr interpolationmode  none
attr source  receivedPacketFromUpperLayer
vector 475  CAIN.ueD2DTx[8].nic.mac  CainHopMessageSent:vector  ETV
attr interpolationmode  none
attr title  "# of Sent CAIN hop message, vector"
vector 109  CAIN.eNodeB.nic.mac  ServedHopDevs:vector  ETV
attr interpolationmode  none
attr title  "# of devices served on hop forwarding, vector"
vector 1549  CAIN.ueD2DTx[11].tcp  tcpRcvQueueBytes  ETV
vector 1536  CAIN.ueD2DTx[11].tcp  "advertised window"  ETV
vector 1535  CAIN.ueD2DTx[11].tcp  "receive window"  ETV
vector 1538  CAIN.ueD2DTx[11].tcp  "sent ack"  ETV
vector 557  CAIN.ueD2DTx[11].nic.pdcpRrc  receivedPacketFromUpperLayer:vector(packetBytes)  ETV
attr interpolationmode  none
attr source  receivedPacketFromUpperLayer
vector 560  CAIN.ueD2DTx[11].nic.pdcpRrc  sentPacketToLowerLayer:vector(packetBytes)  ETV
attr interpolationmode  none
attr source  sentPacketToLowerLayer
vector 561  CAIN.ueD2DTx[11].nic.mac  receivedPacketFromUpperLayer:vector(packetBytes)  ETV
attr interpolationmode  none
attr source  receivedPacketFromUpperLayer
vector 571  CAIN.ueD2DTx[11].nic.mac  CainHopMessageSent:vector  ETV
attr interpolationmode  none
attr title  "# of Sent CAIN hop message, vector"
vector 564  CAIN.ueD2DTx[11].nic.mac  sentPacketToLowerLayer:vector(packetBytes)  ETV
attr interpolationmode  none
attr source  sentPacketToLowerLayer
vector 699  CAIN.ueD2DTx[15].nic.mac  CainHopMessageSent:vector  ETV
attr interpolationmode  none
attr title  "# of Sent CAIN hop message, vector"
vector 1573  CAIN.ueD2DTx[7].tcp  tcpRcvQueueBytes  ETV
vector 1560  CAIN.ueD2DTx[7].tcp  "advertised window"  ETV
vector 1559  CAIN.ueD2DTx[7].tcp  "receive window"  ETV
vector 1562  CAIN.ueD2DTx[7].tcp  "sent ack"  ETV
vector 429  CAIN.ueD2DTx[7].nic.pdcpRrc  receivedPacketFromUpperLayer:vector(packetBytes)  ETV
attr interpolationmode  none
attr source  receivedPacketFromUpperLayer
vector 432  CAIN.ueD2DTx[7].nic.pdcpRrc  sentPacketToLowerLayer:vector(packetBytes)  ETV
attr interpolationmode  none
attr source  sentPacketToLowerLayer
vector 433  CAIN.ueD2DTx[7].nic.mac  receivedPacketFromUpperLayer:vector(packetBytes)  ETV
attr interpolationmode  none
attr source  receivedPacketFromUpperLayer
vector 443  CAIN.ueD2DTx[7].nic.mac  CainHopMessageSent:vector  ETV
attr interpolationmode  none
attr title  "# of Sent CAIN hop message, vector"
vector 436  CAIN.ueD2DTx[7].nic.mac  sentPacketToLowerLayer:vector(packetBytes)  ETV
attr interpolationmode  none
attr source  sentPacketToLowerLayer
vector 1301  CAIN.eNodeB1.sctp  "SendQueue of Association 5"  ETV
vector 1065  CAIN.eNodeB1.sctp  "TSN Sent 5:10.0.5.1"  ETV
vector 1072  CAIN.eNodeB1.sctp  "Outstanding Bytes 5:10.0.5.1"  ETV
vector 870  CAIN.eNodeB1.sctp  "Outstanding Bytes 4:Total"  ETV
vector 1071  CAIN.eNodeB1.sctp  "Queued Sent Bytes 5:10.0.5.1"  ETV
vector 869  CAIN.eNodeB1.sctp  "Queued Sent Bytes 4:Total"  ETV
vector 914  CAIN.eNodeB.sctp  "TSN Received 1:10.0.5.2"  ETV
vector 890  CAIN.eNodeB.sctp  "Queued Received Bytes 1:Total"  ETV
vector 886  CAIN.eNodeB.sctp  "Advertised Receiver Window 1"  ETV
vector 895  CAIN.eNodeB.sctp  "Number of Total Gap Blocks Stored 1"  ETV
vector 896  CAIN.eNodeB.sctp  "Number of Revokable Gap Blocks Stored 1"  ETV
vector 897  CAIN.eNodeB.sctp  "Number of Non-Revokable Gap Blocks Stored 1"  ETV
vector 898  CAIN.eNodeB.sctp  "Number of Duplicate TSNs Stored 1"  ETV
vector 902  CAIN.eNodeB.sctp  "Length of SACK Sent 1"  ETV
vector 899  CAIN.eNodeB.sctp  "Number of Revokable Gap Blocks Sent 1"  ETV
vector 900  CAIN.eNodeB.sctp  "Number of Non-Revokable Gap Blocks Sent 1"  ETV
vector 901  CAIN.eNodeB.sctp  "Number of Duplicate TSNs Sent 1"  ETV
vector 906  CAIN.eNodeB.sctp  "End to End Delay of Association 1"  ETV
vector 141  CAIN.eNodeB.x2App[0].client  rcvdPk:vector(packetBytes)  ETV
attr interpolationmode  none
attr source  rcvdPk
attr title  "packets received, vector(packetBytes)"
vector 1300  CAIN.eNodeB1.sctp  "Number of Gap Blocks in Last SACK of Association 5"  ETV
vector 871  CAIN.eNodeB1.sctp  "Number of Revokable Gap Blocks in SACK 4"  ETV
vector 872  CAIN.eNodeB1.sctp  "Number of Non-Revokable Gap Blocks in SACK 4"  ETV
vector 1082  CAIN.eNodeB1.sctp  "TSN Acked CumAck 5:10.0.5.1"  ETV
vector 1048  CAIN.eNodeB1.sctp  "Number of Gap Acked Chunks in Last SACK 5:10.0.2.2"  ETV
vector 1049  CAIN.eNodeB1.sctp  "Number of Non-Revokable Gap Acked Chunks in Last SACK 5:10.0.2.2"  ETV
vector 1050  CAIN.eNodeB1.sctp  "Number of Gap Missed Chunks in Last SACK 5:10.0.2.2"  ETV
vector 1021  CAIN.eNodeB1.sctp  "Number of Gap Acked Chunks in Last SACK 5:10.0.4.1"  ETV
vector 1022  CAIN.eNodeB1.sctp  "Number of Non-Revokable Gap Acked Chunks in Last SACK 5:10.0.4.1"  ETV
vector 1023  CAIN.eNodeB1.sctp  "Number of Gap Missed Chunks in Last SACK 5:10.0.4.1"  ETV
vector 1075  CAIN.eNodeB1.sctp  "Number of Gap Acked Chunks in Last SACK 5:10.0.5.1"  ETV
vector 1076  CAIN.eNodeB1.sctp  "Number of Non-Revokable Gap Acked Chunks in Last SACK 5:10.0.5.1"  ETV
vector 1077  CAIN.eNodeB1.sctp  "Number of Gap Missed Chunks in Last SACK 5:10.0.5.1"  ETV
vector 881  CAIN.eNodeB1.sctp  "Arwnd in Last SACK 4"  ETV
vector 1084  CAIN.eNodeB1.sctp  "TSN PseudoCumAck 5:10.0.5.1"  ETV
vector 1085  CAIN.eNodeB1.sctp  "TSN RTXPseudoCumAck 5:10.0.5.1"  ETV
vector 1078  CAIN.eNodeB1.sctp  "Partial Bytes Acked 5:10.0.5.1"  ETV
vector 1597  CAIN.ueD2DTx[4].tcp  tcpRcvQueueBytes  ETV
vector 1584  CAIN.ueD2DTx[4].tcp  "advertised window"  ETV
vector 1583  CAIN.ueD2DTx[4].tcp  "receive window"  ETV
vector 1586  CAIN.ueD2DTx[4].tcp  "sent ack"  ETV
vector 333  CAIN.ueD2DTx[4].nic.pdcpRrc  receivedPacketFromUpperLayer:vector(packetBytes)  ETV
attr interpolationmode  none
attr source  receivedPacketFromUpperLayer
vector 336  CAIN.ueD2DTx[4].nic.pdcpRrc  sentPacketToLowerLayer:vector(packetBytes)  ETV
attr interpolationmode  none
attr source  sentPacketToLowerLayer
vector 337  CAIN.ueD2DTx[4].nic.mac  receivedPacketFromUpperLayer:vector(packetBytes)  ETV
attr interpolationmode  none
attr source  receivedPacketFromUpperLayer
vector 347  CAIN.ueD2DTx[4].nic.mac  CainHopMessageSent:vector  ETV
attr interpolationmode  none
attr title  "# of Sent CAIN hop message, vector"
vector 154  CAIN.eNodeB1.nic.mac  receivedPacketFromLowerLayer:vector(packetBytes)  ETV
attr interpolationmode  none
attr source  receivedPacketFromLowerLayer
vector 1621  CAIN.ueD2DTx[16].tcp  tcpRcvQueueBytes  ETV
vector 1608  CAIN.ueD2DTx[16].tcp  "advertised window"  ETV
vector 1607  CAIN.ueD2DTx[16].tcp  "receive window"  ETV
vector 1610  CAIN.ueD2DTx[16].tcp  "sent ack"  ETV
vector 717  CAIN.ueD2DTx[16].nic.pdcpRrc  receivedPacketFromUpperLayer:vector(packetBytes)  ETV
attr interpolationmode  none
attr source  receivedPacketFromUpperLayer
vector 720  CAIN.ueD2DTx[16].nic.pdcpRrc  sentPacketToLowerLayer:vector(packetBytes)  ETV
attr interpolationmode  none
attr source  sentPacketToLowerLayer
vector 721  CAIN.ueD2DTx[16].nic.mac  receivedPacketFromUpperLayer:vector(packetBytes)  ETV
attr interpolationmode  none
attr source  receivedPacketFromUpperLayer
vector 730  CAIN.ueD2DTx[16].nic.mac  CainMessageSent:vector  ETV
attr interpolationmode  none
attr title  "# of Sent CAIN message, vector"
vector 724  CAIN.ueD2DTx[16].nic.mac  sentPacketToLowerLayer:vector(packetBytes)  ETV
attr interpolationmode  none
attr source  sentPacketToLowerLayer
vector 274  CAIN.ueD2DTx[2].nic.mac  receivedPacketFromLowerLayer:vector(packetBytes)  ETV
attr interpolationmode  none
attr source  receivedPacketFromLowerLayer
vector 1645  CAIN.ueD2DTx[1].tcp  tcpRcvQueueBytes  ETV
vector 1632  CAIN.ueD2DTx[1].tcp  "advertised window"  ETV
vector 1631  CAIN.ueD2DTx[1].tcp  "receive window"  ETV
vector 1634  CAIN.ueD2DTx[1].tcp  "sent ack"  ETV
vector 237  CAIN.ueD2DTx[1].nic.pdcpRrc  receivedPacketFromUpperLayer:vector(packetBytes)  ETV
attr interpolationmode  none
attr source  receivedPacketFromUpperLayer
vector 240  CAIN.ueD2DTx[1].nic.pdcpRrc  sentPacketToLowerLayer:vector(packetBytes)  ETV
attr interpolationmode  none
attr source  sentPacketToLowerLayer
vector 241  CAIN.ueD2DTx[1].nic.mac  receivedPacketFromUpperLayer:vector(packetBytes)  ETV
attr interpolationmode  none
attr source  receivedPacketFromUpperLayer
vector 250  CAIN.ueD2DTx[1].nic.mac  CainMessageSent:vector  ETV
attr interpolationmode  none
attr title  "# of Sent CAIN message, vector"
vector 244  CAIN.ueD2DTx[1].nic.mac  sentPacketToLowerLayer:vector(packetBytes)  ETV
attr interpolationmode  none
attr source  sentPacketToLowerLayer
vector 306  CAIN.ueD2DTx[3].nic.mac  receivedPacketFromLowerLayer:vector(packetBytes)  ETV
attr interpolationmode  none
attr source  receivedPacketFromLowerLayer
vector 402  CAIN.ueD2DTx[6].nic.mac  receivedPacketFromLowerLayer:vector(packetBytes)  ETV
attr interpolationmode  none
attr source  receivedPacketFromLowerLayer
vector 1669  CAIN.ueD2DTx[9].tcp  tcpRcvQueueBytes  ETV
vector 1656  CAIN.ueD2DTx[9].tcp  "advertised window"  ETV
vector 1655  CAIN.ueD2DTx[9].tcp  "receive window"  ETV
vector 1658  CAIN.ueD2DTx[9].tcp  "sent ack"  ETV
vector 493  CAIN.ueD2DTx[9].nic.pdcpRrc  receivedPacketFromUpperLayer:vector(packetBytes)  ETV
attr interpolationmode  none
attr source  receivedPacketFromUpperLayer
vector 496  CAIN.ueD2DTx[9].nic.pdcpRrc  sentPacketToLowerLayer:vector(packetBytes)  ETV
attr interpolationmode  none
attr source  sentPacketToLowerLayer
vector 497  CAIN.ueD2DTx[9].nic.mac  receivedPacketFromUpperLayer:vector(packetBytes)  ETV
attr interpolationmode  none
attr source  receivedPacketFromUpperLayer
vector 698  CAIN.ueD2DTx[15].nic.mac  CainMessageSent:vector  ETV
attr interpolationmode  none
attr title  "# of Sent CAIN message, vector"
vector 1693  CAIN.ueD2DTx[10].tcp  tcpRcvQueueBytes  ETV
vector 1680  CAIN.ueD2DTx[10].tcp  "advertised window"  ETV
vector 1679  CAIN.ueD2DTx[10].tcp  "receive window"  ETV
vector 1682  CAIN.ueD2DTx[10].tcp  "sent ack"  ETV
vector 525  CAIN.ueD2DTx[10].nic.pdcpRrc  receivedPacketFromUpperLayer:vector(packetBytes)  ETV
attr interpolationmode  none
attr source  receivedPacketFromUpperLayer
vector 528  CAIN.ueD2DTx[10].nic.pdcpRrc  sentPacketToLowerLayer:vector(packetBytes)  ETV
attr interpolationmode  none
attr source  sentPacketToLowerLayer
vector 529  CAIN.ueD2DTx[10].nic.mac  receivedPacketFromUpperLayer:vector(packetBytes)  ETV
attr interpolationmode  none
attr source  receivedPacketFromUpperLayer
vector 532  CAIN.ueD2DTx[10].nic.mac  sentPacketToLowerLayer:vector(packetBytes)  ETV
attr interpolationmode  none
attr source  sentPacketToLowerLayer
vector 169  CAIN.eNodeB1.nic.mac  racpkt:vector  ETV
attr interpolationmode  none
attr title  "eNB received racpkt message, vector"
vector 170  CAIN.eNodeB1.nic.mac  racDistanceSignal:vector  ETV
attr interpolationmode  none
attr title  "Rac distance to enb, vector"
vector 171  CAIN.eNodeB1.nic.mac  racServedDevsSignal:vector  ETV
attr interpolationmode  none
attr title  "# of devices served on rac arriavall, vector"
vector 156  CAIN.eNodeB1.nic.mac  sentPacketToLowerLayer:vector(packetBytes)  ETV
attr interpolationmode  none
attr source  sentPacketToLowerLayer
vector 530  CAIN.ueD2DTx[10].nic.mac  receivedPacketFromLowerLayer:vector(packetBytes)  ETV
attr interpolationmode  none
attr source  receivedPacketFromLowerLayer
vector 1717  CAIN.ueD2DTx[17].tcp  tcpRcvQueueBytes  ETV
vector 1704  CAIN.ueD2DTx[17].tcp  "advertised window"  ETV
vector 1703  CAIN.ueD2DTx[17].tcp  "receive window"  ETV
vector 1706  CAIN.ueD2DTx[17].tcp  "sent ack"  ETV
vector 749  CAIN.ueD2DTx[17].nic.pdcpRrc  receivedPacketFromUpperLayer:vector(packetBytes)  ETV
attr interpolationmode  none
attr source  receivedPacketFromUpperLayer
vector 752  CAIN.ueD2DTx[17].nic.pdcpRrc  sentPacketToLowerLayer:vector(packetBytes)  ETV
attr interpolationmode  none
attr source  sentPacketToLowerLayer
vector 753  CAIN.ueD2DTx[17].nic.mac  receivedPacketFromUpperLayer:vector(packetBytes)  ETV
attr interpolationmode  none
attr source  receivedPacketFromUpperLayer
vector 1741  CAIN.ueD2DTx[0].tcp  tcpRcvQueueBytes  ETV
vector 1728  CAIN.ueD2DTx[0].tcp  "advertised window"  ETV
vector 1727  CAIN.ueD2DTx[0].tcp  "receive window"  ETV
vector 1730  CAIN.ueD2DTx[0].tcp  "sent ack"  ETV
vector 205  CAIN.ueD2DTx[0].nic.pdcpRrc  receivedPacketFromUpperLayer:vector(packetBytes)  ETV
attr interpolationmode  none
attr source  receivedPacketFromUpperLayer
vector 208  CAIN.ueD2DTx[0].nic.pdcpRrc  sentPacketToLowerLayer:vector(packetBytes)  ETV
attr interpolationmode  none
attr source  sentPacketToLowerLayer
vector 209  CAIN.ueD2DTx[0].nic.mac  receivedPacketFromUpperLayer:vector(packetBytes)  ETV
attr interpolationmode  none
attr source  receivedPacketFromUpperLayer
vector 212  CAIN.ueD2DTx[0].nic.mac  sentPacketToLowerLayer:vector(packetBytes)  ETV
attr interpolationmode  none
attr source  sentPacketToLowerLayer
vector 763  CAIN.ueD2DTx[17].nic.mac  CainHopMessageSent:vector  ETV
attr interpolationmode  none
attr title  "# of Sent CAIN hop message, vector"
vector 756  CAIN.ueD2DTx[17].nic.mac  sentPacketToLowerLayer:vector(packetBytes)  ETV
attr interpolationmode  none
attr source  sentPacketToLowerLayer
vector 210  CAIN.ueD2DTx[0].nic.mac  receivedPacketFromLowerLayer:vector(packetBytes)  ETV
attr interpolationmode  none
attr source  receivedPacketFromLowerLayer
vector 1765  CAIN.ueD2DTx[19].tcp  tcpRcvQueueBytes  ETV
vector 1752  CAIN.ueD2DTx[19].tcp  "advertised window"  ETV
vector 1751  CAIN.ueD2DTx[19].tcp  "receive window"  ETV
vector 1754  CAIN.ueD2DTx[19].tcp  "sent ack"  ETV
vector 813  CAIN.ueD2DTx[19].nic.pdcpRrc  receivedPacketFromUpperLayer:vector(packetBytes)  ETV
attr interpolationmode  none
attr source  receivedPacketFromUpperLayer
vector 816  CAIN.ueD2DTx[19].nic.pdcpRrc  sentPacketToLowerLayer:vector(packetBytes)  ETV
attr interpolationmode  none
attr source  sentPacketToLowerLayer
vector 817  CAIN.ueD2DTx[19].nic.mac  receivedPacketFromUpperLayer:vector(packetBytes)  ETV
attr interpolationmode  none
attr source  receivedPacketFromUpperLayer
vector 1789  CAIN.ueD2DTx[5].tcp  tcpRcvQueueBytes  ETV
vector 1776  CAIN.ueD2DTx[5].tcp  "advertised window"  ETV
vector 1775  CAIN.ueD2DTx[5].tcp  "receive window"  ETV
vector 1778  CAIN.ueD2DTx[5].tcp  "sent ack"  ETV
vector 365  CAIN.ueD2DTx[5].nic.pdcpRrc  receivedPacketFromUpperLayer:vector(packetBytes)  ETV
attr interpolationmode  none
attr source  receivedPacketFromUpperLayer
vector 368  CAIN.ueD2DTx[5].nic.pdcpRrc  sentPacketToLowerLayer:vector(packetBytes)  ETV
attr interpolationmode  none
attr source  sentPacketToLowerLayer
vector 369  CAIN.ueD2DTx[5].nic.mac  receivedPacketFromUpperLayer:vector(packetBytes)  ETV
attr interpolationmode  none
attr source  receivedPacketFromUpperLayer
vector 379  CAIN.ueD2DTx[5].nic.mac  CainHopMessageSent:vector  ETV
attr interpolationmode  none
attr title  "# of Sent CAIN hop message, vector"
vector 372  CAIN.ueD2DTx[5].nic.mac  sentPacketToLowerLayer:vector(packetBytes)  ETV
attr interpolationmode  none
attr source  sentPacketToLowerLayer
vector 827  CAIN.ueD2DTx[19].nic.mac  CainHopMessageSent:vector  ETV
attr interpolationmode  none
attr title  "# of Sent CAIN hop message, vector"
vector 820  CAIN.ueD2DTx[19].nic.mac  sentPacketToLowerLayer:vector(packetBytes)  ETV
attr interpolationmode  none
attr source  sentPacketToLowerLayer
vector 507  CAIN.ueD2DTx[9].nic.mac  CainHopMessageSent:vector  ETV
attr interpolationmode  none
attr title  "# of Sent CAIN hop message, vector"
vector 722  CAIN.ueD2DTx[16].nic.mac  receivedPacketFromLowerLayer:vector(packetBytes)  ETV
attr interpolationmode  none
attr source  receivedPacketFromLowerLayer
vector 173  CAIN.eNodeB1.nic.phy  averageCqiUlvect:vector  ETV
attr source  averageCqiUlvect
attr title  "Average Cqi reported in UL, vector"
attr unit  cqi
vector 282  CAIN.ueD2DTx[2].nic.mac  CainMessageSent:vector  ETV
attr interpolationmode  none
attr title  "# of Sent CAIN message, vector"
vector 434  CAIN.ueD2DTx[7].nic.mac  receivedPacketFromLowerLayer:vector(packetBytes)  ETV
attr interpolationmode  none
attr source  receivedPacketFromLowerLayer
vector 410  CAIN.ueD2DTx[6].nic.mac  CainMessageSent:vector  ETV
attr interpolationmode  none
attr title  "# of Sent CAIN message, vector"
vector 474  CAIN.ueD2DTx[8].nic.mac  CainMessageSent:vector  ETV
attr interpolationmode  none
attr title  "# of Sent CAIN message, vector"
vector 442  CAIN.ueD2DTx[7].nic.mac  CainMessageSent:vector  ETV
attr interpolationmode  none
attr title  "# of Sent CAIN message, vector"
vector 251  CAIN.ueD2DTx[1].nic.mac  CainHopMessageSent:vector  ETV
attr interpolationmode  none
attr title  "# of Sent CAIN hop message, vector"
vector 538  CAIN.ueD2DTx[10].nic.mac  CainMessageSent:vector  ETV
attr interpolationmode  none
attr title  "# of Sent CAIN message, vector"
vector 219  CAIN.ueD2DTx[0].nic.mac  CainHopMessageSent:vector  ETV
attr interpolationmode  none
attr title  "# of Sent CAIN hop message, vector"
vector 242  CAIN.ueD2DTx[1].nic.mac  receivedPacketFromLowerLayer:vector(packetBytes)  ETV
attr interpolationmode  none
attr source  receivedPacketFromLowerLayer
vector 731  CAIN.ueD2DTx[16].nic.mac  CainHopMessageSent:vector  ETV
attr interpolationmode  none
attr title  "# of Sent CAIN hop message, vector"
1108	150	0.0000001228	0
1219	235	0.0000006304	65535
1220	235	0.0000006304	8940
1221	235	0.0000006304	0.3725
1217	235	0.0000006304	3
1224	235	0.0000006304	1
1236	163	0.0000003096	0
1192	235	0.0000006304	65535
1193	235	0.0000006304	8940
1194	235	0.0000006304	0.3725
1190	235	0.0000006304	3
1197	235	0.0000006304	1
1209	163	0.0000003096	0
910	235	0.0000006304	65535
911	235	0.0000006304	8940
912	235	0.0000006304	0.3725
908	235	0.0000006304	3
908	302	0.0000008564	1
909	302	0.0000008564	2.26e-07
914	3549	0.0570000972	2000
914	3568	0.0570004804	2001
914	3568	0.0570004804	2002
914	3568	0.0570004804	2003
914	3568	0.0570004804	2004
914	3568	0.0570004804	2005
914	3568	0.0570004804	2006
914	3568	0.0570004804	2007
914	3568	0.0570004804	2008
914	3568	0.0570004804	2009
914	3568	0.0570004804	2010
914	3568	0.0570004804	2011
914	3568	0.0570004804	2012
914	3568	0.0570004804	2013
914	14941	0.2570024476	2014
914	14941	0.2570024476	2015
914	14941	0.2570024476	2016
914	14941	0.2570024476	2017
914	14941	0.2570024476	2018
914	14941	0.2570024476	2019
914	14941	0.2570024476	2020
914	14941	0.2570024476	2021
914	14941	0.2570024476	2022
914	14941	0.2570024476	2023
914	14941	0.2570024476	2024
914	14941	0.2570024476	2025
914	14941	0.2570024476	2026
914	14941	0.2570024476	2027
914	14941	0.2570024476	2028
914	14941	0.2570024476	2029
914	14941	0.2570024476	2030
914	14941	0.2570024476	2031
914	14941	0.2570024476	2032
914	14941	0.2570024476	2033
914	14941	0.2570024476	2034
914	14941	0.2570024476	2035
914	14941	0.2570024476	2036
914	14941	0.2570024476	2037
914	14941	0.2570024476	2038
914	14941	0.2570024476	2039
914	14941	0.2570024476	2040
914	14941	0.2570024476	2041
914	14941	0.2570024476	2042
914	14941	0.2570024476	2043
914	14941	0.2570024476	2044
914	14941	0.2570024476	2045
914	14941	0.2570024476	2046
914	14941	0.2570024476	2047
914	14941	0.2570024476	2048
914	14941	0.2570024476	2049
914	14941	0.2570024476	2050
914	14941	0.2570024476	2051
914	14941	0.2570024476	2052
914	14941	0.2570024476	2053
914	14941	0.2570024476	2054
914	14941	0.2570024476	2055
914	14941	0.2570024476	2056
914	14941	0.2570024476	2057
914	14941	0.2570024476	2058
914	14941	0.2570024476	2059
914	14941	0.2570024476	2060
914	14941	0.2570024476	2061
914	14941	0.2570024476	2062
914	14941	0.2570024476	2063
914	14941	0.2570024476	2064
914	14941	0.2570024476	2065
914	14941	0.2570024476	2066
914	14941	0.2570024476	2067
914	14941	0.2570024476	2068
914	14941	0.2570024476	2069
914	14941	0.2570024476	2070
914	14941	0.2570024476	2071
914	14941	0.2570024476	2072
914	14941	0.2570024476	2073
914	14941	0.2570024476	2074
914	14941	0.2570024476	2075
914	14941	0.2570024476	2076
914	14941	0.2570024476	2077
914	14941	0.2570024476	2078
914	14941	0.2570024476	2079
914	14941	0.2570024476	2080
914	14941	0.2570024476	2081
914	14941	0.2570024476	2082
914	14941	0.2570024476	2083
914	14941	0.2570024476	2084
914	14941	0.2570024476	2085
914	14941	0.2570024476	2086
914	14941	0.2570024476	2087
914	14941	0.2570024476	2088
914	14941	0.2570024476	2089
914	14941	0.2570024476	2090
914	14941	0.2570024476	2091
914	14941	0.2570024476	2092
914	14941	0.2570024476	2093
914	14941	0.2570024476	2094
914	14941	0.2570024476	2095
914	14941	0.2570024476	2096
914	14941	0.2570024476	2097
914	14941	0.2570024476	2098
914	14941	0.2570024476	2099
914	14941	0.2570024476	2100
914	14941	0.2570024476	2101
914	14941	0.2570024476	2102
914	14941	0.2570024476	2103
914	14941	0.2570024476	2104
914	14941	0.2570024476	2105
914	14941	0.2570024476	2106
914	14941	0.2570024476	2107
914	14941	0.2570024476	2108
914	14941	0.2570024476	2109
914	14941	0.2570024476	2110
914	14941	0.2570024476	2111
914	14941	0.2570024476	2112
914	14941	0.2570024476	2113
914	14941	0.2570024476	2114
914	14941	0.2570024476	2115
914	14941	0.2570024476	2116
914	14941	0.2570024476	2117
914	14941	0.2570024476	2118
914	14941	0.2570024476	2119
914	14941	0.2570024476	2120
914	14941	0.2570024476	2121
914	14941	0.2570024476	2122
914	14941	0.2570024476	2123
914	14941	0.2570024476	2124
914	14941	0.2570024476	2125
917	207	0.000000552	1
917	221	0.000000596	2
916	207	0.000000552	1
916	221	0.000000596	2
918	302	0.0000008564	1
918	308	0.0000009004	2
927	131	0	0
886	3549	0.0570000972	65533
886	14927	0.2570004804	65535
886	25741	0.4570024476	65535
890	3549	0.0570000972	2
890	3552	0.0570000972	2
890	3582	0.0570004804	26
890	3583	0.0570004804	0
890	3584	0.0570004804	0
890	3585	0.0570004804	0
890	3586	0.0570004804	0
890	3587	0.0570004804	0
890	3588	0.0570004804	0
890	3589	0.0570004804	0
890	3590	0.0570004804	0
890	3591	0.0570004804	0
890	3592	0.0570004804	0
890	3593	0.0570004804	0
890	3594	0.0570004804	0
890	14927	0.2570004804	0
890	15054	0.2570024476	224
890	15055	0.2570024476	0
890	15056	0.2570024476	0
890	15057	0.2570024476	0
890	15058	0.2570024476	0
890	15059	0.2570024476	0
890	15060	0.2570024476	0
890	15061	0.2570024476	0
890	15062	0.2570024476	0
890	15063	0.2570024476	0
890	15064	0.2570024476	0
890	15065	0.2570024476	0
890	15066	0.2570024476	0
890	15067	0.2570024476	0
890	15068	0.2570024476	0
890	15069	0.2570024476	0
890	15070	0.2570024476	0
890	15071	0.2570024476	0
890	15072	0.2570024476	0
890	15073	0.2570024476	0
890	15074	0.2570024476	0
890	15075	0.2570024476	0
890	15076	0.2570024476	0
890	15077	0.2570024476	0
890	15078	0.2570024476	0
890	15079	0.2570024476	0
890	15080	0.2570024476	0
890	15081	0.2570024476	0
890	15082	0.2570024476	0
890	15083	0.2570024476	0
890	15084	0.2570024476	0
890	15085	0.2570024476	0
890	15086	0.2570024476	0
890	15087	0.2570024476	0
890	15088	0.2570024476	0
890	15089	0.2570024476	0
890	15090	0.2570024476	0
890	15091	0.2570024476	0
890	15092	0.2570024476	0
890	15093	0.2570024476	0
890	15094	0.2570024476	0
890	15095	0.2570024476	0
890	15096	0.2570024476	0
890	15097	0.2570024476	0
890	15098	0.2570024476	0
890	15099	0.2570024476	0
890	15100	0.2570024476	0
890	15101	0.2570024476	0
890	15102	0.2570024476	0
890	15103	0.2570024476	0
890	15104	0.2570024476	0
890	15105	0.2570024476	0
890	15106	0.2570024476	0
890	15107	0.2570024476	0
890	15108	0.2570024476	0
890	15109	0.2570024476	0
890	15110	0.2570024476	0
890	15111	0.2570024476	0
890	15112	0.2570024476	0
890	15113	0.2570024476	0
890	15114	0.2570024476	0
890	15115	0.2570024476	0
890	15116	0.2570024476	0
890	15117	0.2570024476	0
890	15118	0.2570024476	0
890	15119	0.2570024476	0
890	15120	0.2570024476	0
890	15121	0.2570024476	0
890	15122	0.2570024476	0
890	15123	0.2570024476	0
890	15124	0.2570024476	0
890	15125	0.2570024476	0
890	15126	0.2570024476	0
890	15127	0.2570024476	0
890	15128	0.2570024476	0
890	15129	0.2570024476	0
890	15130	0.2570024476	0
890	15131	0.2570024476	0
890	15132	0.2570024476	0
890	15133	0.2570024476	0
890	15134	0.2570024476	0
890	15135	0.2570024476	0
890	15136	0.2570024476	0
890	15137	0.2570024476	0
890	15138	0.2570024476	0
890	15139	0.2570024476	0
890	15140	0.2570024476	0
890	15141	0.2570024476	0
890	15142	0.2570024476	0
890	15143	0.2570024476	0
890	15144	0.2570024476	0
890	15145	0.2570024476	0
890	15146	0.2570024476	0
890	15147	0.2570024476	0
890	15148	0.2570024476	0
890	15149	0.2570024476	0
890	15150	0.2570024476	0
890	15151	0.2570024476	0
890	15152	0.2570024476	0
890	15153	0.2570024476	0
890	15154	0.2570024476	0
890	15155	0.2570024476	0
890	15156	0.2570024476	0
890	15157	0.2570024476	0
890	15158	0.2570024476	0
890	15159	0.2570024476	0
890	15160	0.2570024476	0
890	15161	0.2570024476	0
890	15162	0.2570024476	0
890	15163	0.2570024476	0
890	15164	0.2570024476	0
890	15165	0.2570024476	0
890	25741	0.4570024476	0
895	3549	0.0570000972	0
895	14927	0.2570004804	0
895	25741	0.4570024476	0
896	3549	0.0570000972	0
896	14927	0.2570004804	0
896	25741	0.4570024476	0
897	3549	0.0570000972	0
897	14927	0.2570004804	0
897	25741	0.4570024476	0
898	3549	0.0570000972	0
898	14927	0.2570004804	0
898	25741	0.4570024476	0
899	3549	0.0570000972	0
899	14927	0.2570004804	0
899	25741	0.4570024476	0
900	3549	0.0570000972	0
900	14927	0.2570004804	0
900	25741	0.4570024476	0
901	3549	0.0570000972	0
901	14927	0.2570004804	0
901	25741	0.4570024476	0
902	3549	0.0570000972	16
902	14927	0.2570004804	16
902	25741	0.4570024476	16
904	163	0.0000003096	65535
906	3552	0.0570000972	9.72e-08
906	3582	0.0570004804	2.892e-07
906	3582	0.0570004804	2.892e-07
906	3582	0.0570004804	2.892e-07
906	3582	0.0570004804	2.892e-07
906	3582	0.0570004804	2.892e-07
906	3582	0.0570004804	2.892e-07
906	3582	0.0570004804	2.892e-07
906	3582	0.0570004804	2.892e-07
906	3582	0.0570004804	2.892e-07
906	3582	0.0570004804	2.892e-07
906	3582	0.0570004804	2.892e-07
906	3582	0.0570004804	2.892e-07
906	3582	0.0570004804	2.892e-07
906	15054	0.2570024476	1.8732e-06
906	15054	0.2570024476	1.8732e-06
906	15054	0.2570024476	1.8732e-06
906	15054	0.2570024476	1.8732e-06
906	15054	0.2570024476	1.8732e-06
906	15054	0.2570024476	1.8732e-06
906	15054	0.2570024476	1.8732e-06
906	15054	0.2570024476	1.8732e-06
906	15054	0.2570024476	1.8732e-06
906	15054	0.2570024476	1.8732e-06
906	15054	0.2570024476	1.8732e-06
906	15054	0.2570024476	1.8732e-06
906	15054	0.2570024476	1.8732e-06
906	15054	0.2570024476	1.8732e-06
906	15054	0.2570024476	1.8732e-06
906	15054	0.2570024476	1.8732e-06
906	15054	0.2570024476	1.8732e-06
906	15054	0.2570024476	1.8732e-06
906	15054	0.2570024476	1.8732e-06
906	15054	0.2570024476	1.8732e-06
906	15054	0.2570024476	1.8732e-06
906	15054	0.2570024476	1.8732e-06
906	15054	0.2570024476	1.8732e-06
906	15054	0.2570024476	1.8732e-06
906	15054	0.2570024476	1.8732e-06
906	15054	0.2570024476	1.8732e-06
906	15054	0.2570024476	1.8732e-06
906	15054	0.2570024476	1.8732e-06
906	15054	0.2570024476	1.8732e-06
906	15054	0.2570024476	1.8732e-06
906	15054	0.2570024476	1.8732e-06
906	15054	0.2570024476	1.8732e-06
906	15054	0.2570024476	1.8732e-06
906	15054	0.2570024476	1.8732e-06
906	15054	0.2570024476	1.8732e-06
906	15054	0.2570024476	1.8732e-06
906	15054	0.2570024476	1.8732e-06
906	15054	0.2570024476	1.8732e-06
906	15054	0.2570024476	1.8732e-06
906	15054	0.2570024476	1.8732e-06
906	15054	0.2570024476	1.8732e-06
906	15054	0.2570024476	1.8732e-06
906	15054	0.2570024476	1.8732e-06
906	15054	0.2570024476	1.8732e-06
906	15054	0.2570024476	1.8732e-06
906	15054	0.2570024476	1.8732e-06
906	15054	0.2570024476	1.8732e-06
906	15054	0.2570024476	1.8732e-06
906	15054	0.2570024476	1.8732e-06
906	15054	0.2570024476	1.8732e-06
906	15054	0.2570024476	1.8732e-06
906	15054	0.2570024476	1.8732e-06
906	15054	0.2570024476	1.8732e-06
906	15054	0.2570024476	1.8732e-06
906	15054	0.2570024476	1.8732e-06
906	15054	0.2570024476	1.8732e-06
906	15054	0.2570024476	1.8732e-06
906	15054	0.2570024476	1.8732e-06
906	15054	0.2570024476	1.8732e-06
906	15054	0.2570024476	1.8732e-06
906	15054	0.2570024476	1.8732e-06
906	15054	0.2570024476	1.8732e-06
906	15054	0.2570024476	1.8732e-06
906	15054	0.2570024476	1.8732e-06
906	15054	0.2570024476	1.8732e-06
906	15054	0.2570024476	1.8732e-06
906	15054	0.2570024476	1.8732e-06
906	15054	0.2570024476	1.8732e-06
906	15054	0.2570024476	1.8732e-06
906	15054	0.2570024476	1.8732e-06
906	15054	0.2570024476	1.8732e-06
906	15054	0.2570024476	1.8732e-06
906	15054	0.2570024476	1.8732e-06
906	15054	0.2570024476	1.8732e-06
906	15054	0.2570024476	1.8732e-06
906	15054	0.2570024476	1.8732e-06
906	15054	0.2570024476	1.8732e-06
906	15054	0.2570024476	1.8732e-06
906	15054	0.2570024476	1.8732e-06
906	15054	0.2570024476	1.8732e-06
906	15054	0.2570024476	1.8732e-06
906	15054	0.2570024476	1.8732e-06
906	15054	0.2570024476	1.8732e-06
906	15054	0.2570024476	1.8732e-06
906	15054	0.2570024476	1.8732e-06
906	15054	0.2570024476	1.8732e-06
906	15054	0.2570024476	1.8732e-06
906	15054	0.2570024476	1.8732e-06
906	15054	0.2570024476	1.8732e-06
906	15054	0.2570024476	1.8732e-06
906	15054	0.2570024476	1.8732e-06
906	15054	0.2570024476	1.8732e-06
906	15054	0.2570024476	1.8732e-06
906	15054	0.2570024476	1.8732e-06
906	15054	0.2570024476	1.8732e-06
906	15054	0.2570024476	1.8732e-06
906	15054	0.2570024476	1.8732e-06
906	15054	0.2570024476	1.8732e-06
906	15054	0.2570024476	1.8732e-06
906	15054	0.2570024476	1.8732e-06
906	15054	0.2570024476	1.8732e-06
906	15054	0.2570024476	1.8732e-06
906	15054	0.2570024476	1.8732e-06
906	15054	0.2570024476	1.8732e-06
906	15054	0.2570024476	1.8732e-06
906	15054	0.2570024476	1.8732e-06
906	15054	0.2570024476	1.8732e-06
906	15054	0.2570024476	1.8732e-06
906	15054	0.2570024476	1.8732e-06
906	15054	0.2570024476	1.8732e-06
906	15054	0.2570024476	1.8732e-06
906	15054	0.2570024476	1.8732e-06
907	131	0	0
1138	178	0.000000458	65535
1139	178	0.000000458	8940
1140	178	0.000000458	0.3725
1136	178	0.000000458	3
1143	178	0.000000458	1
1151	657	0.0070001912	0
1151	11822	0.2070005744	0
1151	23190	0.4070025416	0
1152	657	0.0070001912	0
1152	11822	0.2070005744	0
1152	23190	0.4070025416	0
1153	657	0.0070001912	0
1153	11822	0.2070005744	0
1153	23190	0.4070025416	0
1155	150	0.0000001228	0
1111	178	0.000000458	65535
1112	178	0.000000458	8940
1113	178	0.000000458	0.3725
1109	178	0.000000458	3
1116	178	0.000000458	1
1124	657	0.0070001912	0
1124	11822	0.2070005744	0
1124	23190	0.4070025416	0
1125	657	0.0070001912	0
1125	11822	0.2070005744	0
1125	23190	0.4070025416	0
1126	657	0.0070001912	0
1126	11822	0.2070005744	0
1126	23190	0.4070025416	0
1128	150	0.0000001228	0
1165	178	0.000000458	65535
1165	64128	1.2070005744	65535
1166	178	0.000000458	8940
1166	64128	1.2070005744	8940
1167	178	0.000000458	0.3725
1167	64128	1.2070005744	23.84
1163	178	0.000000458	3
1163	255	0.0000006744	1
1163	657	0.0070001912	1
1163	11822	0.2070005744	1
1163	23190	0.4070025416	1
1164	255	0.0000006744	2.164e-07
1164	657	0.0070001912	1.912e-07
1164	11822	0.2070005744	0.2000003832
1164	23190	0.4070025416	0.2000019672
1168	601	0.007	2000
1168	657	0.0070001912	2001
1168	657	0.0070001912	2002
1168	657	0.0070001912	2003
1168	657	0.0070001912	2004
1168	657	0.0070001912	2005
1168	657	0.0070001912	2006
1168	657	0.0070001912	2007
1168	657	0.0070001912	2008
1168	657	0.0070001912	2009
1168	657	0.0070001912	2010
1168	657	0.0070001912	2011
1168	657	0.0070001912	2012
1168	657	0.0070001912	2013
1168	11822	0.2070005744	2014
1168	11822	0.2070005744	2015
1168	11822	0.2070005744	2016
1168	11822	0.2070005744	2017
1168	11822	0.2070005744	2018
1168	11822	0.2070005744	2019
1168	11822	0.2070005744	2020
1168	11822	0.2070005744	2021
1168	11822	0.2070005744	2022
1168	11822	0.2070005744	2023
1168	11822	0.2070005744	2024
1168	11822	0.2070005744	2025
1168	11822	0.2070005744	2026
1168	11822	0.2070005744	2027
1168	11822	0.2070005744	2028
1168	11822	0.2070005744	2029
1168	11822	0.2070005744	2030
1168	11822	0.2070005744	2031
1168	11822	0.2070005744	2032
1168	11822	0.2070005744	2033
1168	11822	0.2070005744	2034
1168	11822	0.2070005744	2035
1168	11822	0.2070005744	2036
1168	11822	0.2070005744	2037
1168	11822	0.2070005744	2038
1168	11822	0.2070005744	2039
1168	11822	0.2070005744	2040
1168	11822	0.2070005744	2041
1168	11822	0.2070005744	2042
1168	11822	0.2070005744	2043
1168	11822	0.2070005744	2044
1168	11822	0.2070005744	2045
1168	11822	0.2070005744	2046
1168	11822	0.2070005744	2047
1168	11822	0.2070005744	2048
1168	11822	0.2070005744	2049
1168	11822	0.2070005744	2050
1168	11822	0.2070005744	2051
1168	11822	0.2070005744	2052
1168	11822	0.2070005744	2053
1168	11822	0.2070005744	2054
1168	11822	0.2070005744	2055
1168	11822	0.2070005744	2056
1168	11822	0.2070005744	2057
1168	11822	0.2070005744	2058
1168	11822	0.2070005744	2059
1168	11822	0.2070005744	2060
1168	11822	0.2070005744	2061
1168	11822	0.2070005744	2062
1168	11822	0.2070005744	2063
1168	11822	0.2070005744	2064
1168	11822	0.2070005744	2065
1168	11822	0.2070005744	2066
1168	11822	0.2070005744	2067
1168	11822	0.2070005744	2068
1168	11822	0.2070005744	2069
1168	11822	0.2070005744	2070
1168	11822	0.2070005744	2071
1168	11822	0.2070005744	2072
1168	11822	0.2070005744	2073
1168	11822	0.2070005744	2074
1168	11822	0.2070005744	2075
1168	11822	0.2070005744	2076
1168	11822	0.2070005744	2077
1168	11822	0.2070005744	2078
1168	11822	0.2070005744	2079
1168	11822	0.2070005744	2080
1168	11822	0.2070005744	2081
1168	11822	0.2070005744	2082
1168	11822	0.2070005744	2083
1168	11822	0.2070005744	2084
1168	11822	0.2070005744	2085
1168	11822	0.2070005744	2086
1168	11822	0.2070005744	2087
1168	11822	0.2070005744	2088
1168	11822	0.2070005744	2089
1168	11822	0.2070005744	2090
1168	11822	0.2070005744	2091
1168	11822	0.2070005744	2092
1168	11822	0.2070005744	2093
1168	11822	0.2070005744	2094
1168	11822	0.2070005744	2095
1168	11822	0.2070005744	2096
1168	11822	0.2070005744	2097
1168	11822	0.2070005744	2098
1168	11822	0.2070005744	2099
1168	11822	0.2070005744	2100
1168	11822	0.2070005744	2101
1168	11822	0.2070005744	2102
1168	11822	0.2070005744	2103
1168	11822	0.2070005744	2104
1168	11822	0.2070005744	2105
1168	11822	0.2070005744	2106
1168	11822	0.2070005744	2107
1168	11822	0.2070005744	2108
1168	11822	0.2070005744	2109
1168	11822	0.2070005744	2110
1168	11822	0.2070005744	2111
1168	11822	0.2070005744	2112
1168	11822	0.2070005744	2113
1168	11822	0.2070005744	2114
1168	11822	0.2070005744	2115
1168	11822	0.2070005744	2116
1168	11822	0.2070005744	2117
1168	11822	0.2070005744	2118
1168	11822	0.2070005744	2119
1168	11822	0.2070005744	2120
1168	11822	0.2070005744	2121
1168	11822	0.2070005744	2122
1168	11822	0.2070005744	2123
1168	11822	0.2070005744	2124
1168	11822	0.2070005744	2125
1172	273	0.0000007624	1
1172	287	0.0000008064	2
1171	273	0.0000007624	1
1171	287	0.0000008064	2
1173	255	0.0000006744	1
1173	265	0.0000007184	2
1174	601	0.007	2
1174	657	0.0070001912	0
1174	657	0.0070001912	2
1174	657	0.0070001912	4
1174	657	0.0070001912	6
1174	657	0.0070001912	8
1174	657	0.0070001912	10
1174	657	0.0070001912	12
1174	657	0.0070001912	14
1174	657	0.0070001912	16
1174	657	0.0070001912	18
1174	657	0.0070001912	20
1174	657	0.0070001912	22
1174	657	0.0070001912	24
1174	657	0.0070001912	26
1174	11822	0.2070005744	24
1174	11822	0.2070005744	22
1174	11822	0.2070005744	20
1174	11822	0.2070005744	18
1174	11822	0.2070005744	16
1174	11822	0.2070005744	14
1174	11822	0.2070005744	12
1174	11822	0.2070005744	10
1174	11822	0.2070005744	8
1174	11822	0.2070005744	6
1174	11822	0.2070005744	4
1174	11822	0.2070005744	2
1174	11822	0.2070005744	0
1174	11822	0.2070005744	2
1174	11822	0.2070005744	4
1174	11822	0.2070005744	6
1174	11822	0.2070005744	8
1174	11822	0.2070005744	10
1174	11822	0.2070005744	12
1174	11822	0.2070005744	14
1174	11822	0.2070005744	16
1174	11822	0.2070005744	18
1174	11822	0.2070005744	20
1174	11822	0.2070005744	22
1174	11822	0.2070005744	24
1174	11822	0.2070005744	26
1174	11822	0.2070005744	28
1174	11822	0.2070005744	30
1174	11822	0.2070005744	32
1174	11822	0.2070005744	34
1174	11822	0.2070005744	36
1174	11822	0.2070005744	38
1174	11822	0.2070005744	40
1174	11822	0.2070005744	42
1174	11822	0.2070005744	44
1174	11822	0.2070005744	46
1174	11822	0.2070005744	48
1174	11822	0.2070005744	50
1174	11822	0.2070005744	52
1174	11822	0.2070005744	54
1174	11822	0.2070005744	56
1174	11822	0.2070005744	58
1174	11822	0.2070005744	60
1174	11822	0.2070005744	62
1174	11822	0.2070005744	64
1174	11822	0.2070005744	66
1174	11822	0.2070005744	68
1174	11822	0.2070005744	70
1174	11822	0.2070005744	72
1174	11822	0.2070005744	74
1174	11822	0.2070005744	76
1174	11822	0.2070005744	78
1174	11822	0.2070005744	80
1174	11822	0.2070005744	82
1174	11822	0.2070005744	84
1174	11822	0.2070005744	86
1174	11822	0.2070005744	88
1174	11822	0.2070005744	90
1174	11822	0.2070005744	92
1174	11822	0.2070005744	94
1174	11822	0.2070005744	96
1174	11822	0.2070005744	98
1174	11822	0.2070005744	100
1174	11822	0.2070005744	102
1174	11822	0.2070005744	104
1174	11822	0.2070005744	106
1174	11822	0.2070005744	108
1174	11822	0.2070005744	110
1174	11822	0.2070005744	112
1174	11822	0.2070005744	114
1174	11822	0.2070005744	116
1174	11822	0.2070005744	118
1174	11822	0.2070005744	120
1174	11822	0.2070005744	122
1174	11822	0.2070005744	124
1174	11822	0.2070005744	126
1174	11822	0.2070005744	128
1174	11822	0.2070005744	130
1174	11822	0.2070005744	132
1174	11822	0.2070005744	134
1174	11822	0.2070005744	136
1174	11822	0.2070005744	138
1174	11822	0.2070005744	140
1174	11822	0.2070005744	142
1174	11822	0.2070005744	144
1174	11822	0.2070005744	146
1174	11822	0.2070005744	148
1174	11822	0.2070005744	150
1174	11822	0.2070005744	152
1174	11822	0.2070005744	154
1174	11822	0.2070005744	156
1174	11822	0.2070005744	158
1174	11822	0.2070005744	160
1174	11822	0.2070005744	162
1174	11822	0.2070005744	164
1174	11822	0.2070005744	166
1174	11822	0.2070005744	168
1174	11822	0.2070005744	170
1174	11822	0.2070005744	172
1174	11822	0.2070005744	174
1174	11822	0.2070005744	176
1174	11822	0.2070005744	178
1174	11822	0.2070005744	180
1174	11822	0.2070005744	182
1174	11822	0.2070005744	184
1174	11822	0.2070005744	186
1174	11822	0.2070005744	188
1174	11822	0.2070005744	190
1174	11822	0.2070005744	192
1174	11822	0.2070005744	194
1174	11822	0.2070005744	196
1174	11822	0.2070005744	198
1174	11822	0.2070005744	200
1174	11822	0.2070005744	202
1174	11822	0.2070005744	204
1174	11822	0.2070005744	206
1174	11822	0.2070005744	208
1174	11822	0.2070005744	210
1174	11822	0.2070005744	212
1174	11822	0.2070005744	214
1174	11822	0.2070005744	216
1174	11822	0.2070005744	218
1174	11822	0.2070005744	220
1174	11822	0.2070005744	222
1174	11822	0.2070005744	224
1174	23190	0.4070025416	222
1174	23190	0.4070025416	220
1174	23190	0.4070025416	218
1174	23190	0.4070025416	216
1174	23190	0.4070025416	214
1174	23190	0.4070025416	212
1174	23190	0.4070025416	210
1174	23190	0.4070025416	208
1174	23190	0.4070025416	206
1174	23190	0.4070025416	204
1174	23190	0.4070025416	202
1174	23190	0.4070025416	200
1174	23190	0.4070025416	198
1174	23190	0.4070025416	196
1174	23190	0.4070025416	194
1174	23190	0.4070025416	192
1174	23190	0.4070025416	190
1174	23190	0.4070025416	188
1174	23190	0.4070025416	186
1174	23190	0.4070025416	184
1174	23190	0.4070025416	182
1174	23190	0.4070025416	180
1174	23190	0.4070025416	178
1174	23190	0.4070025416	176
1174	23190	0.4070025416	174
1174	23190	0.4070025416	172
1174	23190	0.4070025416	170
1174	23190	0.4070025416	168
1174	23190	0.4070025416	166
1174	23190	0.4070025416	164
1174	23190	0.4070025416	162
1174	23190	0.4070025416	160
1174	23190	0.4070025416	158
1174	23190	0.4070025416	156
1174	23190	0.4070025416	154
1174	23190	0.4070025416	152
1174	23190	0.4070025416	150
1174	23190	0.4070025416	148
1174	23190	0.4070025416	146
1174	23190	0.4070025416	144
1174	23190	0.4070025416	142
1174	23190	0.4070025416	140
1174	23190	0.4070025416	138
1174	23190	0.4070025416	136
1174	23190	0.4070025416	134
1174	23190	0.4070025416	132
1174	23190	0.4070025416	130
1174	23190	0.4070025416	128
1174	23190	0.4070025416	126
1174	23190	0.4070025416	124
1174	23190	0.4070025416	122
1174	23190	0.4070025416	120
1174	23190	0.4070025416	118
1174	23190	0.4070025416	116
1174	23190	0.4070025416	114
1174	23190	0.4070025416	112
1174	23190	0.4070025416	110
1174	23190	0.4070025416	108
1174	23190	0.4070025416	106
1174	23190	0.4070025416	104
1174	23190	0.4070025416	102
1174	23190	0.4070025416	100
1174	23190	0.4070025416	98
1174	23190	0.4070025416	96
1174	23190	0.4070025416	94
1174	23190	0.4070025416	92
1174	23190	0.4070025416	90
1174	23190	0.4070025416	88
1174	23190	0.4070025416	86
1174	23190	0.4070025416	84
1174	23190	0.4070025416	82
1174	23190	0.4070025416	80
1174	23190	0.4070025416	78
1174	23190	0.4070025416	76
1174	23190	0.4070025416	74
1174	23190	0.4070025416	72
1174	23190	0.4070025416	70
1174	23190	0.4070025416	68
1174	23190	0.4070025416	66
1174	23190	0.4070025416	64
1174	23190	0.4070025416	62
1174	23190	0.4070025416	60
1174	23190	0.4070025416	58
1174	23190	0.4070025416	56
1174	23190	0.4070025416	54
1174	23190	0.4070025416	52
1174	23190	0.4070025416	50
1174	23190	0.4070025416	48
1174	23190	0.4070025416	46
1174	23190	0.4070025416	44
1174	23190	0.4070025416	42
1174	23190	0.4070025416	40
1174	23190	0.4070025416	38
1174	23190	0.4070025416	36
1174	23190	0.4070025416	34
1174	23190	0.4070025416	32
1174	23190	0.4070025416	30
1174	23190	0.4070025416	28
1174	23190	0.4070025416	26
1174	23190	0.4070025416	24
1174	23190	0.4070025416	22
1174	23190	0.4070025416	20
1174	23190	0.4070025416	18
1174	23190	0.4070025416	16
1174	23190	0.4070025416	14
1174	23190	0.4070025416	12
1174	23190	0.4070025416	10
1174	23190	0.4070025416	8
1174	23190	0.4070025416	6
1174	23190	0.4070025416	4
1174	23190	0.4070025416	2
1174	23190	0.4070025416	0
1175	601	0.007	2
1175	657	0.0070001912	0
1175	657	0.0070001912	2
1175	657	0.0070001912	4
1175	657	0.0070001912	6
1175	657	0.0070001912	8
1175	657	0.0070001912	10
1175	657	0.0070001912	12
1175	657	0.0070001912	14
1175	657	0.0070001912	16
1175	657	0.0070001912	18
1175	657	0.0070001912	20
1175	657	0.0070001912	22
1175	657	0.0070001912	24
1175	657	0.0070001912	26
1175	11822	0.2070005744	24
1175	11822	0.2070005744	22
1175	11822	0.2070005744	20
1175	11822	0.2070005744	18
1175	11822	0.2070005744	16
1175	11822	0.2070005744	14
1175	11822	0.2070005744	12
1175	11822	0.2070005744	10
1175	11822	0.2070005744	8
1175	11822	0.2070005744	6
1175	11822	0.2070005744	4
1175	11822	0.2070005744	2
1175	11822	0.2070005744	0
1175	11822	0.2070005744	2
1175	11822	0.2070005744	4
1175	11822	0.2070005744	6
1175	11822	0.2070005744	8
1175	11822	0.2070005744	10
1175	11822	0.2070005744	12
1175	11822	0.2070005744	14
1175	11822	0.2070005744	16
1175	11822	0.2070005744	18
1175	11822	0.2070005744	20
1175	11822	0.2070005744	22
1175	11822	0.2070005744	24
1175	11822	0.2070005744	26
1175	11822	0.2070005744	28
1175	11822	0.2070005744	30
1175	11822	0.2070005744	32
1175	11822	0.2070005744	34
1175	11822	0.2070005744	36
1175	11822	0.2070005744	38
1175	11822	0.2070005744	40
1175	11822	0.2070005744	42
1175	11822	0.2070005744	44
1175	11822	0.2070005744	46
1175	11822	0.2070005744	48
1175	11822	0.2070005744	50
1175	11822	0.2070005744	52
1175	11822	0.2070005744	54
1175	11822	0.2070005744	56
1175	11822	0.2070005744	58
1175	11822	0.2070005744	60
1175	11822	0.2070005744	62
1175	11822	0.2070005744	64
1175	11822	0.2070005744	66
1175	11822	0.2070005744	68
1175	11822	0.2070005744	70
1175	11822	0.2070005744	72
1175	11822	0.2070005744	74
1175	11822	0.2070005744	76
1175	11822	0.2070005744	78
1175	11822	0.2070005744	80
1175	11822	0.2070005744	82
1175	11822	0.2070005744	84
1175	11822	0.2070005744	86
1175	11822	0.2070005744	88
1175	11822	0.2070005744	90
1175	11822	0.2070005744	92
1175	11822	0.2070005744	94
1175	11822	0.2070005744	96
1175	11822	0.2070005744	98
1175	11822	0.2070005744	100
1175	11822	0.2070005744	102
1175	11822	0.2070005744	104
1175	11822	0.2070005744	106
1175	11822	0.2070005744	108
1175	11822	0.2070005744	110
1175	11822	0.2070005744	112
1175	11822	0.2070005744	114
1175	11822	0.2070005744	116
1175	11822	0.2070005744	118
1175	11822	0.2070005744	120
1175	11822	0.2070005744	122
1175	11822	0.2070005744	124
1175	11822	0.2070005744	126
1175	11822	0.2070005744	128
1175	11822	0.2070005744	130
1175	11822	0.2070005744	132
1175	11822	0.2070005744	134
1175	11822	0.2070005744	136
1175	11822	0.2070005744	138
1175	11822	0.2070005744	140
1175	11822	0.2070005744	142
1175	11822	0.2070005744	144
1175	11822	0.2070005744	146
1175	11822	0.2070005744	148
1175	11822	0.2070005744	150
1175	11822	0.2070005744	152
1175	11822	0.2070005744	154
1175	11822	0.2070005744	156
1175	11822	0.2070005744	158
1175	11822	0.2070005744	160
1175	11822	0.2070005744	162
1175	11822	0.2070005744	164
1175	11822	0.2070005744	166
1175	11822	0.2070005744	168
1175	11822	0.2070005744	170
1175	11822	0.2070005744	172
1175	11822	0.2070005744	174
1175	11822	0.2070005744	176
1175	11822	0.2070005744	178
1175	11822	0.2070005744	180
1175	11822	0.2070005744	182
1175	11822	0.2070005744	184
1175	11822	0.2070005744	186
1175	11822	0.2070005744	188
1175	11822	0.2070005744	190
1175	11822	0.2070005744	192
1175	11822	0.2070005744	194
1175	11822	0.2070005744	196
1175	11822	0.2070005744	198
1175	11822	0.2070005744	200
1175	11822	0.2070005744	202
1175	11822	0.2070005744	204
1175	11822	0.2070005744	206
1175	11822	0.2070005744	208
1175	11822	0.2070005744	210
1175	11822	0.2070005744	212
1175	11822	0.2070005744	214
1175	11822	0.2070005744	216
1175	11822	0.2070005744	218
1175	11822	0.2070005744	220
1175	11822	0.2070005744	222
1175	11822	0.2070005744	224
1175	23190	0.4070025416	222
1175	23190	0.4070025416	220
1175	23190	0.4070025416	218
1175	23190	0.4070025416	216
1175	23190	0.4070025416	214
1175	23190	0.4070025416	212
1175	23190	0.4070025416	210
1175	23190	0.4070025416	208
1175	23190	0.4070025416	206
1175	23190	0.4070025416	204
1175	23190	0.4070025416	202
1175	23190	0.4070025416	200
1175	23190	0.4070025416	198
1175	23190	0.4070025416	196
1175	23190	0.4070025416	194
1175	23190	0.4070025416	192
1175	23190	0.4070025416	190
1175	23190	0.4070025416	188
1175	23190	0.4070025416	186
1175	23190	0.4070025416	184
1175	23190	0.4070025416	182
1175	23190	0.4070025416	180
1175	23190	0.4070025416	178
1175	23190	0.4070025416	176
1175	23190	0.4070025416	174
1175	23190	0.4070025416	172
1175	23190	0.4070025416	170
1175	23190	0.4070025416	168
1175	23190	0.4070025416	166
1175	23190	0.4070025416	164
1175	23190	0.4070025416	162
1175	23190	0.4070025416	160
1175	23190	0.4070025416	158
1175	23190	0.4070025416	156
1175	23190	0.4070025416	154
1175	23190	0.4070025416	152
1175	23190	0.4070025416	150
1175	23190	0.4070025416	148
1175	23190	0.4070025416	146
1175	23190	0.4070025416	144
1175	23190	0.4070025416	142
1175	23190	0.4070025416	140
1175	23190	0.4070025416	138
1175	23190	0.4070025416	136
1175	23190	0.4070025416	134
1175	23190	0.4070025416	132
1175	23190	0.4070025416	130
1175	23190	0.4070025416	128
1175	23190	0.4070025416	126
1175	23190	0.4070025416	124
1175	23190	0.4070025416	122
1175	23190	0.4070025416	120
1175	23190	0.4070025416	118
1175	23190	0.4070025416	116
1175	23190	0.4070025416	114
1175	23190	0.4070025416	112
1175	23190	0.4070025416	110
1175	23190	0.4070025416	108
1175	23190	0.4070025416	106
1175	23190	0.4070025416	104
1175	23190	0.4070025416	102
1175	23190	0.4070025416	100
1175	23190	0.4070025416	98
1175	23190	0.4070025416	96
1175	23190	0.4070025416	94
1175	23190	0.4070025416	92
1175	23190	0.4070025416	90
1175	23190	0.4070025416	88
1175	23190	0.4070025416	86
1175	23190	0.4070025416	84
1175	23190	0.4070025416	82
1175	23190	0.4070025416	80
1175	23190	0.4070025416	78
1175	23190	0.4070025416	76
1175	23190	0.4070025416	74
[...]
820	194041	3.492	0
820	194430	3.497	0
820	194851	3.502	0
820	195253	3.507	0
820	195609	3.512	0
820	196077	3.517	0
820	196471	3.522	0
820	196860	3.527	0
820	197268	3.532	0
820	197670	3.537	0
820	198026	3.542	0
820	198494	3.547	0
820	198888	3.552	0
820	199277	3.557	0
820	199685	3.562	0
820	200087	3.567	0
820	200443	3.572	0
820	200911	3.577	0
820	201305	3.582	0
820	201694	3.587	0
820	202102	3.592	0
820	202504	3.597	0
820	202873	3.602	0
820	203341	3.607	0
820	203735	3.612	0
820	204124	3.617	0
820	204532	3.622	0
820	204934	3.627	0
820	205290	3.632	0
820	205758	3.637	0
820	206152	3.642	0
820	206541	3.647	0
820	206949	3.652	0
820	207351	3.657	0
820	207707	3.662	0
820	208175	3.667	0
820	208569	3.672	0
820	208958	3.677	0
827	6027	0.097	1
827	6362	0.102	2
827	6675	0.107	3
827	6943	0.112	4
827	7200	0.117	5
827	7412	0.122	6
827	7690	0.127	7
827	7949	0.132	8
827	8206	0.137	9
827	8474	0.142	10
827	8731	0.147	11
827	8943	0.152	12
827	9221	0.157	13
827	9480	0.162	14
827	9737	0.167	15
827	10005	0.172	16
827	10262	0.177	17
827	10474	0.182	18
827	10752	0.187	19
827	11011	0.192	20
827	11268	0.197	21
827	11549	0.202	22
827	11806	0.207	23
827	12593	0.212	24
827	12871	0.217	25
827	13130	0.222	26
827	13387	0.227	27
827	13655	0.232	28
827	13912	0.237	29
827	14124	0.242	30
827	14402	0.247	31
827	14661	0.252	32
827	14918	0.257	33
827	15761	0.262	34
827	16018	0.267	35
827	16230	0.272	36
827	16508	0.277	37
827	16767	0.282	38
827	17024	0.287	39
827	17292	0.292	40
827	17549	0.297	41
827	17774	0.302	42
827	18052	0.307	43
827	18311	0.312	44
827	18568	0.317	45
827	18836	0.322	46
827	19093	0.327	47
827	19305	0.332	48
827	19583	0.337	49
827	19842	0.342	50
827	20099	0.347	51
827	20367	0.352	52
827	20624	0.357	53
827	20836	0.362	54
827	21114	0.367	55
827	21373	0.372	56
827	21630	0.377	57
827	21898	0.382	58
827	22155	0.387	59
827	22367	0.392	60
827	22645	0.397	61
827	22917	0.402	62
827	23174	0.407	63
827	23450	0.412	64
827	23707	0.417	65
827	23919	0.422	66
827	24197	0.427	67
827	24456	0.432	68
827	24713	0.437	69
827	24981	0.442	70
827	25238	0.447	71
827	25450	0.452	72
827	25728	0.457	73
827	25995	0.462	74
827	26252	0.467	75
827	26520	0.472	76
827	26777	0.477	77
827	26989	0.482	78
827	27267	0.487	79
827	27526	0.492	80
827	27783	0.497	81
827	28064	0.502	82
827	28321	0.507	83
827	28533	0.512	84
827	28811	0.517	85
827	29070	0.522	86
827	29327	0.527	87
827	29595	0.532	88
827	29852	0.537	89
827	30064	0.542	90
827	30342	0.547	91
827	30601	0.552	92
827	30858	0.557	93
827	31126	0.562	94
827	31383	0.567	95
827	31595	0.572	96
827	31873	0.577	97
827	32132	0.582	98
827	32389	0.587	99
827	32657	0.592	100
827	32914	0.597	101
827	33139	0.602	102
827	33417	0.607	103
827	33676	0.612	104
827	33933	0.617	105
827	34201	0.622	106
827	34458	0.627	107
827	34670	0.632	108
827	34948	0.637	109
827	35207	0.642	110
827	35464	0.647	111
827	35732	0.652	112
827	35989	0.657	113
827	36201	0.662	114
827	36479	0.667	115
827	36738	0.672	116
827	36995	0.677	117
827	37263	0.682	118
827	37520	0.687	119
827	37732	0.692	120
827	38010	0.697	121
827	38282	0.702	122
827	38539	0.707	123
827	38807	0.712	124
827	39064	0.717	125
827	39276	0.722	126
827	39554	0.727	127
827	39813	0.732	128
827	40070	0.737	129
827	40338	0.742	130
827	40595	0.747	131
827	40807	0.752	132
827	41085	0.757	133
827	41344	0.762	134
827	41601	0.767	135
827	41869	0.772	136
827	42126	0.777	137
827	42338	0.782	138
827	42616	0.787	139
827	42875	0.792	140
827	43132	0.797	141
827	43413	0.802	142
827	43670	0.807	143
827	43882	0.812	144
827	44160	0.817	145
827	44419	0.822	146
827	44676	0.827	147
827	44944	0.832	148
827	45201	0.837	149
827	45413	0.842	150
827	45691	0.847	151
827	45950	0.852	152
827	46207	0.857	153
827	46475	0.862	154
827	46732	0.867	155
827	46944	0.872	156
827	47222	0.877	157
827	47481	0.882	158
827	47738	0.887	159
827	48006	0.892	160
827	48263	0.897	161
827	48488	0.902	162
827	48766	0.907	163
827	49025	0.912	164
827	49282	0.917	165
827	49550	0.922	166
827	49807	0.927	167
827	50019	0.932	168
827	50297	0.937	169
827	50556	0.942	170
827	50813	0.947	171
827	51081	0.952	172
827	51338	0.957	173
827	51550	0.962	174
827	51828	0.967	175
827	52087	0.972	176
827	52344	0.977	177
827	52612	0.982	178
827	52869	0.987	179
827	53081	0.992	180
827	53359	0.997	181
827	53631	1.002	182
827	53888	1.007	183
827	54156	1.012	184
827	54413	1.017	185
827	54625	1.022	186
827	54903	1.027	187
827	55162	1.032	188
827	55419	1.037	189
827	55687	1.042	190
827	55944	1.047	191
827	56156	1.052	192
827	56434	1.057	193
827	56693	1.062	194
827	56950	1.067	195
827	57218	1.072	196
827	57475	1.077	197
827	57687	1.082	198
827	57965	1.087	199
827	58224	1.092	200
827	58481	1.097	201
827	58762	1.102	202
827	59019	1.107	203
827	59231	1.112	204
827	59509	1.117	205
827	59768	1.122	206
827	60025	1.127	207
827	60293	1.132	208
827	60550	1.137	209
827	60762	1.142	210
827	61040	1.147	211
827	61299	1.152	212
827	61556	1.157	213
827	61824	1.162	214
827	62081	1.167	215
827	62293	1.172	216
827	62571	1.177	217
827	62830	1.182	218
827	63087	1.187	219
827	63355	1.192	220
827	63612	1.197	221
827	63837	1.202	222
827	64115	1.207	223
827	64375	1.212	224
827	64632	1.217	225
827	64900	1.222	226
827	65157	1.227	227
827	65369	1.232	228
827	65647	1.237	229
827	65906	1.242	230
827	66163	1.247	231
827	66431	1.252	232
827	66688	1.257	233
827	66901	1.262	234
827	67179	1.267	235
827	67438	1.272	236
827	67695	1.277	237
827	67963	1.282	238
827	68220	1.287	239
827	68432	1.292	240
827	68710	1.297	241
827	68982	1.302	242
827	69239	1.307	243
827	69507	1.312	244
827	69764	1.317	245
827	69976	1.322	246
827	70254	1.327	247
827	70513	1.332	248
827	70770	1.337	249
827	71038	1.342	250
827	71295	1.347	251
827	71507	1.352	252
827	71785	1.357	253
827	72044	1.362	254
827	72301	1.367	255
827	72569	1.372	256
827	72826	1.377	257
827	73038	1.382	258
827	73316	1.387	259
827	73575	1.392	260
827	73832	1.397	261
827	74113	1.402	262
827	74370	1.407	263
827	74582	1.412	264
827	74860	1.417	265
827	75119	1.422	266
827	75376	1.427	267
827	75644	1.432	268
827	75901	1.437	269
827	76113	1.442	270
827	76391	1.447	271
827	76650	1.452	272
827	76907	1.457	273
827	77175	1.462	274
827	77432	1.467	275
827	77644	1.472	276
827	77922	1.477	277
827	78181	1.482	278
827	78438	1.487	279
827	78706	1.492	280
827	78963	1.497	281
827	79188	1.502	282
827	79466	1.507	283
827	79725	1.512	284
827	79982	1.517	285
827	80250	1.522	286
827	80507	1.527	287
827	80719	1.532	288
827	80997	1.537	289
827	81256	1.542	290
827	81513	1.547	291
827	81781	1.552	292
827	82038	1.557	293
827	82250	1.562	294
827	82528	1.567	295
827	82787	1.572	296
827	83044	1.577	297
827	83312	1.582	298
827	83569	1.587	299
827	83781	1.592	300
827	84059	1.597	301
827	84331	1.602	302
827	84588	1.607	303
827	84856	1.612	304
827	85113	1.617	305
827	85325	1.622	306
827	85603	1.627	307
827	85862	1.632	308
827	86119	1.637	309
827	86387	1.642	310
827	86644	1.647	311
827	86856	1.652	312
827	87134	1.657	313
827	87393	1.662	314
827	87650	1.667	315
827	87918	1.672	316
827	88175	1.677	317
827	88387	1.682	318
827	88665	1.687	319
827	88924	1.692	320
827	89181	1.697	321
827	89462	1.702	322
827	89719	1.707	323
827	89930	1.712	324
827	90202	1.717	325
827	90463	1.722	326
827	90722	1.727	327
827	90990	1.732	328
827	91247	1.737	329
827	91459	1.742	330
827	91737	1.747	331
827	91996	1.752	332
827	92253	1.757	333
827	92521	1.762	334
827	92778	1.767	335
827	92990	1.772	336
827	93268	1.777	337
827	93527	1.782	338
827	93784	1.787	339
827	94052	1.792	340
827	94309	1.797	341
827	94534	1.802	342
827	94812	1.807	343
827	95071	1.812	344
827	95328	1.817	345
827	95596	1.822	346
827	95853	1.827	347
827	96065	1.832	348
827	96343	1.837	349
827	96602	1.842	350
827	96859	1.847	351
827	97127	1.852	352
827	97384	1.857	353
827	97596	1.862	354
827	97874	1.867	355
827	98133	1.872	356
827	98390	1.877	357
827	98658	1.882	358
827	98915	1.887	359
827	99127	1.892	360
827	99405	1.897	361
827	99677	1.902	362
827	99934	1.907	363
827	100202	1.912	364
827	100459	1.917	365
827	100671	1.922	366
827	100949	1.927	367
827	101208	1.932	368
827	101465	1.937	369
827	101733	1.942	370
827	101990	1.947	371
827	102202	1.952	372
827	102480	1.957	373
827	102739	1.962	374
827	102996	1.967	375
827	103264	1.972	376
827	103521	1.977	377
827	103733	1.982	378
827	104011	1.987	379
827	104270	1.992	380
827	104527	1.997	381
827	104808	2.002	382
827	105065	2.007	383
827	105277	2.012	384
827	105555	2.017	385
827	105814	2.022	386
827	106071	2.027	387
827	106339	2.032	388
827	106596	2.037	389
827	106808	2.042	390
827	107086	2.047	391
827	107345	2.052	392
827	107602	2.057	393
827	107870	2.062	394
827	108127	2.067	395
827	108339	2.072	396
827	108617	2.077	397
827	108876	2.082	398
827	109133	2.087	399
827	109401	2.092	400
827	109658	2.097	401
827	109883	2.102	402
827	110161	2.107	403
827	110420	2.112	404
827	110677	2.117	405
827	110945	2.122	406
827	111202	2.127	407
827	111414	2.132	408
827	111692	2.137	409
827	111951	2.142	410
827	112208	2.147	411
827	112476	2.152	412
827	112733	2.157	413
827	112945	2.162	414
827	113223	2.167	415
827	113482	2.172	416
827	113739	2.177	417
827	114007	2.182	418
827	114264	2.187	419
827	114476	2.192	420
827	114754	2.197	421
827	115026	2.202	422
827	115283	2.207	423
827	115551	2.212	424
827	115808	2.217	425
827	116020	2.222	426
827	116298	2.227	427
827	116557	2.232	428
827	116814	2.237	429
827	117082	2.242	430
827	117339	2.247	431
827	117551	2.252	432
827	117829	2.257	433
827	118088	2.262	434
827	118345	2.267	435
827	118613	2.272	436
827	118870	2.277	437
827	119082	2.282	438
827	119360	2.287	439
827	119619	2.292	440
827	119876	2.297	441
827	120157	2.302	442
827	120414	2.307	443
827	120626	2.312	444
827	120904	2.317	445
827	121163	2.322	446
827	121420	2.327	447
827	121688	2.332	448
827	121945	2.337	449
827	122157	2.342	450
827	122435	2.347	451
827	122694	2.352	452
827	122951	2.357	453
827	123219	2.362	454
827	123476	2.367	455
827	123688	2.372	456
827	123966	2.377	457
827	124225	2.382	458
827	124482	2.387	459
827	124750	2.392	460
827	125007	2.397	461
827	125232	2.402	462
827	125509	2.407	463
827	125762	2.412	464
827	126021	2.417	465
827	126298	2.422	466
827	126555	2.427	467
827	126767	2.432	468
827	127045	2.437	469
827	127304	2.442	470
827	127561	2.447	471
827	127829	2.452	472
827	128086	2.457	473
827	128298	2.462	474
827	128576	2.467	475
827	128835	2.472	476
827	129092	2.477	477
827	129360	2.482	478
827	129617	2.487	479
827	129829	2.492	480
827	130107	2.497	481
827	130379	2.502	482
827	130636	2.507	483
827	130904	2.512	484
827	131161	2.517	485
827	131373	2.522	486
827	131651	2.527	487
827	131910	2.532	488
827	132167	2.537	489
827	132435	2.542	490
827	132692	2.547	491
827	132904	2.552	492
827	133182	2.557	493
827	133441	2.562	494
827	133698	2.567	495
827	133966	2.572	496
827	134223	2.577	497
827	134435	2.582	498
827	134713	2.587	499
827	134972	2.592	500
827	135229	2.597	501
827	135510	2.602	502
827	135767	2.607	503
827	135979	2.612	504
827	136257	2.617	505
827	136516	2.622	506
827	136773	2.627	507
827	137041	2.632	508
827	137298	2.637	509
827	137510	2.642	510
827	137788	2.647	511
827	138047	2.652	512
827	138304	2.657	513
827	138572	2.662	514
827	138829	2.667	515
827	139041	2.672	516
827	139319	2.677	517
827	139578	2.682	518
827	139835	2.687	519
827	140103	2.692	520
827	140360	2.697	521
827	140585	2.702	522
827	140863	2.707	523
827	141122	2.712	524
827	141379	2.717	525
827	141647	2.722	526
827	141907	2.727	527
827	142122	2.732	528
827	142400	2.737	529
827	142659	2.742	530
827	142916	2.747	531
827	143184	2.752	532
827	143444	2.757	533
827	143659	2.762	534
827	143937	2.767	535
827	144196	2.772	536
827	144453	2.777	537
827	144721	2.782	538
827	144981	2.787	539
827	145196	2.792	540
827	145474	2.797	541
827	145746	2.802	542
827	146003	2.807	543
827	146271	2.812	544
827	146531	2.817	545
827	146746	2.822	546
827	147024	2.827	547
827	147283	2.832	548
827	147540	2.837	549
827	147808	2.842	550
827	148068	2.847	551
827	148283	2.852	552
827	148561	2.857	553
827	148820	2.862	554
827	149077	2.867	555
827	149345	2.872	556
827	149605	2.877	557
827	149820	2.882	558
827	150098	2.887	559
827	150357	2.892	560
827	150614	2.897	561
827	150895	2.902	562
827	151155	2.907	563
827	151370	2.912	564
827	151648	2.917	565
827	151907	2.922	566
827	152164	2.927	567
827	152432	2.932	568
827	152692	2.937	569
827	152907	2.942	570
827	153185	2.947	571
827	153444	2.952	572
827	153701	2.957	573
827	153969	2.962	574
827	154229	2.967	575
827	154444	2.972	576
827	154722	2.977	577
827	154981	2.982	578
827	155238	2.987	579
827	155506	2.992	580
827	155766	2.997	581
827	155994	3.002	582
827	156272	3.007	583
827	156531	3.012	584
827	156796	3.017	585
827	157079	3.022	586
827	157355	3.027	587
827	157611	3.032	588
827	157948	3.037	589
827	158257	3.042	590
827	158575	3.047	591
827	158926	3.052	592
827	159271	3.057	593
827	159575	3.062	594
827	159954	3.067	595
827	160296	3.072	596
827	160646	3.077	597
827	161024	3.082	598
827	161403	3.087	599
827	161749	3.092	600
827	162183	3.097	601
827	162584	3.102	602
827	162973	3.107	603
827	163381	3.112	604
827	163783	3.117	605
827	164139	3.122	606
827	164607	3.127	607
827	165001	3.132	608
827	165390	3.137	609
827	165798	3.142	610
827	166200	3.147	611
827	166556	3.152	612
827	167024	3.157	613
827	167418	3.162	614
827	167807	3.167	615
827	168215	3.172	616
827	168617	3.177	617
827	168973	3.182	618
827	169441	3.187	619
827	169835	3.192	620
827	170224	3.197	621
827	170645	3.202	622
827	171047	3.207	623
827	171402	3.212	624
827	171864	3.217	625
827	172260	3.222	626
827	172651	3.227	627
827	173059	3.232	628
827	173461	3.237	629
827	173817	3.242	630
827	174285	3.247	631
827	174679	3.252	632
827	175068	3.257	633
827	175476	3.262	634
827	175878	3.267	635
827	176234	3.272	636
827	176702	3.277	637
827	177096	3.282	638
827	177485	3.287	639
827	177893	3.292	640
827	178295	3.297	641
827	178664	3.302	642
827	179132	3.307	643
827	179526	3.312	644
827	179915	3.317	645
827	180323	3.322	646
827	180725	3.327	647
827	181081	3.332	648
827	181549	3.337	649
827	181943	3.342	650
827	182332	3.347	651
827	182740	3.352	652
827	183142	3.357	653
827	183498	3.362	654
827	183966	3.367	655
827	184360	3.372	656
827	184749	3.377	657
827	185157	3.382	658
827	185559	3.387	659
827	185915	3.392	660
827	186383	3.397	661
827	186790	3.402	662
827	187179	3.407	663
827	187587	3.412	664
827	187989	3.417	665
827	188345	3.422	666
827	188813	3.427	667
827	189207	3.432	668
827	189596	3.437	669
827	190004	3.442	670
827	190406	3.447	671
827	190762	3.452	672
827	191230	3.457	673
827	191624	3.462	674
827	192013	3.467	675
827	192421	3.472	676
827	192823	3.477	677
827	193179	3.482	678
827	193647	3.487	679
827	194041	3.492	680
827	194430	3.497	681
827	194851	3.502	682
827	195253	3.507	683
827	195609	3.512	684
827	196077	3.517	685
827	196471	3.522	686
827	196860	3.527	687
827	197268	3.532	688
827	197670	3.537	689
827	198026	3.542	690
827	198494	3.547	691
827	198888	3.552	692
827	199277	3.557	693
827	199685	3.562	694
827	200087	3.567	695
827	200443	3.572	696
827	200911	3.577	697
827	201305	3.582	698
827	201694	3.587	699
827	202102	3.592	700
827	202504	3.597	701
827	202873	3.602	702
827	203341	3.607	703
827	203735	3.612	704
827	204124	3.617	705
827	204532	3.622	706
827	204934	3.627	707
827	205290	3.632	708
827	205758	3.637	709
827	206152	3.642	710
827	206541	3.647	711
827	206949	3.652	712
827	207351	3.657	713
827	207707	3.662	714
827	208175	3.667	715
827	208569	3.672	716
827	208958	3.677	717
839	0	0	1
1319	1065	0.016038050947	7504
1319	156764	3.016038050947	7504
1320	1065	0.016038050947	7504
1320	156764	3.016038050947	7504
1322	1065	0.016038050947	0
1322	156764	3.016038050947	0
1333	1065	0.016038050947	0
1333	156764	3.016038050947	0
1343	1305	0.021540784608	7504
1343	157049	3.021540784608	7504
1344	1305	0.021540784608	7504
1344	157049	3.021540784608	7504
1346	1305	0.021540784608	0
1346	157049	3.021540784608	0
1357	1305	0.021540784608	0
1357	157049	3.021540784608	0
1367	1557	0.02660460389	7504
1367	157324	3.02660460389	7504
1368	1557	0.02660460389	7504
1368	157324	3.02660460389	7504
1370	1557	0.02660460389	0
1370	157324	3.02660460389	0
1381	1557	0.02660460389	0
1381	157324	3.02660460389	0
1391	1592	0.027878343419	7504
1391	157366	3.027878343419	7504
1392	1592	0.027878343419	7504
1392	157366	3.027878343419	7504
1394	1592	0.027878343419	0
1394	157366	3.027878343419	0
1405	1592	0.027878343419	0
1405	157366	3.027878343419	0
1415	1634	0.028371024961	7504
1415	157413	3.028371024961	7504
1416	1634	0.028371024961	7504
1416	157413	3.028371024961	7504
1418	1634	0.028371024961	0
1418	157413	3.028371024961	0
1429	1634	0.028371024961	0
1429	157413	3.028371024961	0
1439	1886	0.032649362497	7504
1439	157672	3.032649362497	7504
1440	1886	0.032649362497	7504
1440	157672	3.032649362497	7504
1442	1886	0.032649362497	0
1442	157672	3.032649362497	0
1453	1886	0.032649362497	0
1453	157672	3.032649362497	0
1463	1971	0.034516076937	7504
1463	157777	3.034516076937	7504
1464	1971	0.034516076937	7504
1464	157777	3.034516076937	7504
1466	1971	0.034516076937	0
1466	157777	3.034516076937	0
1477	1971	0.034516076937	0
1477	157777	3.034516076937	0
1487	2084	0.036651693161	7504
1487	157894	3.036651693161	7504
1488	2084	0.036651693161	7504
1488	157894	3.036651693161	7504
1490	2084	0.036651693161	0
1490	157894	3.036651693161	0
1501	2084	0.036651693161	0
1501	157894	3.036651693161	0
1511	2345	0.040940929686	7504
1511	158163	3.040940929686	7504
1512	2345	0.040940929686	7504
1512	158163	3.040940929686	7504
1514	2345	0.040940929686	0
1514	158163	3.040940929686	0
1525	2345	0.040940929686	0
1525	158163	3.040940929686	0
1535	2852	0.04821039218	7504
1535	158662	3.04821039218	7504
1536	2852	0.04821039218	7504
1536	158662	3.04821039218	7504
1538	2852	0.04821039218	0
1538	158662	3.04821039218	0
1549	2852	0.04821039218	0
1549	158662	3.04821039218	0
1559	3369	0.055890854003	7504
1559	159143	3.055890854003	7504
1560	3369	0.055890854003	7504
1560	159143	3.055890854003	7504
1562	3369	0.055890854003	0
1562	159143	3.055890854003	0
1573	3369	0.055890854003	0
1573	159143	3.055890854003	0
1583	3635	0.057963030662	7504
1583	159293	3.057963030662	7504
1584	3635	0.057963030662	7504
1584	159293	3.057963030662	7504
1586	3635	0.057963030662	0
1586	159293	3.057963030662	0
1597	3635	0.057963030662	0
1597	159293	3.057963030662	0
1607	4006	0.063891002787	7504
1607	159698	3.063891002787	7504
1608	4006	0.063891002787	7504
1608	159698	3.063891002787	7504
1610	4006	0.063891002787	0
1610	159698	3.063891002787	0
1621	4006	0.063891002787	0
1621	159698	3.063891002787	0
1631	4048	0.064770889489	7504
1631	159763	3.064770889489	7504
1632	4048	0.064770889489	7504
1632	159763	3.064770889489	7504
1634	4048	0.064770889489	0
1634	159763	3.064770889489	0
1645	4048	0.064770889489	0
1645	159763	3.064770889489	0
1655	4893	0.079275280847	7504
1655	160826	3.079275280847	7504
1656	4893	0.079275280847	7504
1656	160826	3.079275280847	7504
1658	4893	0.079275280847	0
1658	160826	3.079275280847	0
1669	4893	0.079275280847	0
1669	160826	3.079275280847	0
1679	5108	0.082257983647	7504
1679	161047	3.082257983647	7504
1680	5108	0.082257983647	7504
1680	161047	3.082257983647	7504
1682	5108	0.082257983647	0
1682	161047	3.082257983647	0
1693	5108	0.082257983647	0
1693	161047	3.082257983647	0
1703	5477	0.088577514598	7504
1703	161477	3.088577514598	7504
1704	5477	0.088577514598	7504
1704	161477	3.088577514598	7504
1706	5477	0.088577514598	0
1706	161477	3.088577514598	0
1717	5477	0.088577514598	0
1717	161477	3.088577514598	0
1727	5485	0.088784986169	7504
1727	161484	3.088784986169	7504
1728	5485	0.088784986169	7504
1728	161484	3.088784986169	7504
1730	5485	0.088784986169	0
1730	161484	3.088784986169	0
1741	5485	0.088784986169	0
1741	161484	3.088784986169	0
1751	5967	0.096236986774	7504
1751	162120	3.096236986774	7504
1752	5967	0.096236986774	7504
1752	162120	3.096236986774	7504
1754	5967	0.096236986774	0
1754	162120	3.096236986774	0
1765	5967	0.096236986774	0
1765	162120	3.096236986774	0
1775	5975	0.09658703896	7504
1775	162127	3.09658703896	7504
1776	5975	0.09658703896	7504
1776	162127	3.09658703896	7504
1778	5975	0.09658703896	0
1778	162127	3.09658703896	0
1789	5975	0.09658703896	0
1789	162127	3.09658703896	0
