version 2
run CAIN-22-20200513-18:36:49-28321
attr configname CAIN
attr datetime 20200513-18:36:49
attr dist 200
attr experiment CAIN
attr inifile omnetpp.ini
attr iterationvars "$numUe=20, $pwr=-50, $dist=200, $mob=\"./movements/RWPRPGM-0.0.movements\""
attr iterationvars2 "$numUe=20, $pwr=-50, $dist=200, $mob=\"./movements/RWPRPGM-0.0.movements\", $repetition=2"
attr measurement "$numUe=20, $pwr=-50, $dist=200, $mob=\"./movements/RWPRPGM-0.0.movements\""
attr mob "\"./movements/RWPRPGM-0.0.movements\""
attr network lte.simulations.networks.CAIN
attr numUe 20
attr processid 28321
attr pwr -50
attr repetition 2
attr replication #2
attr resultdir results
attr runnumber 22
attr seedset 2
param **.**.amcMode "\"AUTO\""
param **.amcMode "\"D2D\""
param **.cainNetwork true
param **.channelControl.alpha 1.0
param **.channelControl.carrierFrequency 2100e+6Hz
param **.channelControl.pMax 10W
param **.d2dCqi 7
param **.deployer.numRbDl 50
param **.deployer.numRbUl 50
param **.distThresh ${dist=200}
param **.fbDelay 1
param **.feedbackComputation "xmldoc(\"config_channel.xml\")"
param **.mobility.constraintAreaMaxX 1000m
param **.mobility.constraintAreaMaxY 1000m
param **.mobility.constraintAreaMaxZ 0m
param **.mobility.constraintAreaMinX 0m
param **.mobility.constraintAreaMinY 0m
param **.mobility.constraintAreaMinZ 0m
param **.nic.phy.channelModel "xmldoc(\"config_channel.xml\")"
param **.numBands 50
param **.pwrThresh "${pwr= -50}"
param **.qtdThresh 3
param **.rbAllocationType "\"localized\""
param **.routingRecorder.enabled false
param **.tcpApp[*].tClose -1s
param **.ueD2DTx[*].mobility.changeAngleBy "normal(0deg, 30deg)"
param **.ueD2DTx[*].mobility.changeInterval "normal(5s, 0.1s)"
param **.ueD2DTx[*].mobility.nodeId -1
param **.ueD2DTx[*].mobility.speed "normal(2mps, 0.01mps)"
param **.ueD2DTx[*].mobility.traceFile "${mob=\"./movements/RWP-0.0.movements\",\"./movements/RWP-0.5.movements\",\"./movements/RPGM-0.0.movements\",\"./movements/RPGM-0.5.movements\",\"./movements/RWPRPGM-0.0.movements\",\"./movements/RWPRPGM-0.5.movements\"}"
param **.ueD2DTx[*].mobilityType "\"BonnMotionMobility\""
param **.usePreconfiguredTxParams false
param *.eNodeB*.numX2Apps 1
param *.eNodeB*.x2App[*].server.localPort "5000 + ancestorIndex(1)"
param *.eNodeB.d2dCapable false
param *.eNodeB.mobility.initFromDisplayString false
param *.eNodeB.mobility.initialX 300m
param *.eNodeB.mobility.initialY 300m
param *.eNodeB.nic.phy.enableD2DCqiReporting true
param *.eNodeB.txPower 19952.62315mw
param *.eNodeB.x2App[0].client.connectAddress "\"eNodeB1%x2ppp0\""
param *.eNodeB1.d2dCapable true
param *.eNodeB1.mobility.initFromDisplayString false
param *.eNodeB1.mobility.initialX 700m
param *.eNodeB1.mobility.initialY 300m
param *.eNodeB1.nic.phy.enableD2DCqiReporting true
param *.eNodeB1.txPower 19952.62315mw
param *.eNodeB1.x2App[0].client.connectAddress "\"eNodeB%x2ppp0\""
param *.extCell[*].bandAllocationType "\"FULL_ALLOC\""
param *.extCell[*].bandUtilization 0.5
param *.extCell[*].txDirection "\"ANISOTROPIC\""
param *.extCell[*].txPower 20
param *.extCell[0].position_x 100m
param *.extCell[0].position_y 600m
param *.extCell[0].txAngle 315
param *.extCell[1].position_x 600m
param *.extCell[1].position_y 600m
param *.extCell[1].txAngle 225
param *.numExtCells 2
param *.numUeCell 0
param *.numUeD2DRx 1
param *.numUeD2DTx 1
param *.ue*.macCellId 1
param *.ue*.masterId 1
param *.ue*.mobility.initFromDisplayString false
param *.ue*[0].macCellId 1
param *.ue*[0].masterId 1
param *.ue*[0].mobility.initFromDisplayString false
param *.ueD2D*.numTcpApps 1
param *.ueD2D*[*].d2dCapable true
param *.ueD2D*[0].d2dCapable false
param *.ueD2D*[0].numTcpApps 1
param *.ueD2DRx[0].mobility.initialX 310m
param *.ueD2DRx[0].mobility.initialY 350m
param *.ueD2DRx[0].tcpApp[*].localPort 1000
param *.ueD2DRx[0].tcpApp[*].typename "\"TCPSinkApp\""
param *.ueD2DTx*.nic.d2dPeerAddresses "\"ueD2DTx[1]\""
param *.ueD2DTx*.tcpApp[*].connectAddress "\"ueD2DTx[0]\""
param *.ueD2DTx*.tcpApp[*].localAddress "\"ueD2DTx\""
param *.ueD2DTx*.tcpApp[*].localPort 1000
param *.ueD2DTx*.tcpApp[*].sendBytes 1GiB
param *.ueD2DTx*.tcpApp[*].typename "\"TCPSessionApp\""
param *.ueD2DTx*.tcpApp[0].active true
param *.ueD2DTx*.tcpApp[0].connectPort 1000
param *.ueD2DTx*.tcpApp[0].tOpen uniform(0.010s,0.1s)
param *.ueD2DTx*.tcpApp[0].tSend uniform(0.15s,0.5s)
param *.ueD2DTx[0].mobility.initialX 290m
param *.ueD2DTx[0].mobility.initialY 350m
param *.ueD2DTx[0].tcpApp[*].localPort 1000
param *.ueD2DTx[0].tcpApp[*].sendBytes 1GiB
param *.ueD2DTx[0].tcpApp[*].typename "\"TCPSessionApp\""
param *.ueD2DTx[0].tcpApp[0].active true
param *.ueD2DTx[0].tcpApp[0].connectAddress "\"ueD2DRx[0]\""
param *.ueD2DTx[0].tcpApp[0].connectPort 1000
param *.ueD2DTx[0].tcpApp[0].localAddress "\"ueD2DTx[0]\""
param *.ueD2DTx[0].tcpApp[0].tOpen uniform(0.010s,0.1s)
param *.ueD2DTx[0].tcpApp[0].tSend uniform(0.15s,0.5s)

vector 8  CAIN.server.ppp[0].queue  queueLength:vector  ETV
attr interpolationmode  sample-hold
attr title  "queue length, vector"
vector 9  CAIN.server.ppp[0].ppp  txState:vector  ETV
attr interpolationmode  sample-hold
attr title  "tx state, vector"
vector 24  CAIN.router.ppp[0].queue  queueLength:vector  ETV
attr interpolationmode  sample-hold
attr title  "queue length, vector"
vector 25  CAIN.router.ppp[0].ppp  txState:vector  ETV
attr interpolationmode  sample-hold
attr title  "tx state, vector"
vector 35  CAIN.router.ppp[1].queue  queueLength:vector  ETV
attr interpolationmode  sample-hold
attr title  "queue length, vector"
vector 36  CAIN.router.ppp[1].ppp  txState:vector  ETV
attr interpolationmode  sample-hold
attr title  "tx state, vector"
vector 56  CAIN.pgw.ppp[0].queue  queueLength:vector  ETV
attr interpolationmode  sample-hold
attr title  "queue length, vector"
vector 57  CAIN.pgw.ppp[0].ppp  txState:vector  ETV
attr interpolationmode  sample-hold
attr title  "tx state, vector"
vector 67  CAIN.pgw.ppp[1].queue  queueLength:vector  ETV
attr interpolationmode  sample-hold
attr title  "queue length, vector"
vector 68  CAIN.pgw.ppp[1].ppp  txState:vector  ETV
attr interpolationmode  sample-hold
attr title  "tx state, vector"
vector 78  CAIN.pgw.pppInterface.queue  queueLength:vector  ETV
attr interpolationmode  sample-hold
attr title  "queue length, vector"
vector 79  CAIN.pgw.pppInterface.ppp  txState:vector  ETV
attr interpolationmode  sample-hold
attr title  "tx state, vector"
vector 120  CAIN.eNodeB.pppIf.queue  queueLength:vector  ETV
attr interpolationmode  sample-hold
attr title  "queue length, vector"
vector 121  CAIN.eNodeB.pppIf.ppp  txState:vector  ETV
attr interpolationmode  sample-hold
attr title  "tx state, vector"
vector 131  CAIN.eNodeB.x2ppp[0].queue  queueLength:vector  ETV
attr interpolationmode  sample-hold
attr title  "queue length, vector"
vector 132  CAIN.eNodeB.x2ppp[0].ppp  txState:vector  ETV
attr interpolationmode  sample-hold
attr title  "tx state, vector"
vector 178  CAIN.eNodeB1.pppIf.queue  queueLength:vector  ETV
attr interpolationmode  sample-hold
attr title  "queue length, vector"
vector 179  CAIN.eNodeB1.pppIf.ppp  txState:vector  ETV
attr interpolationmode  sample-hold
attr title  "tx state, vector"
vector 189  CAIN.eNodeB1.x2ppp[0].queue  queueLength:vector  ETV
attr interpolationmode  sample-hold
attr title  "queue length, vector"
vector 190  CAIN.eNodeB1.x2ppp[0].ppp  txState:vector  ETV
attr interpolationmode  sample-hold
attr title  "tx state, vector"
vector 231  CAIN.ueD2DTx[0].nic.phy  servingCell:vector  ETV
attr source  servingCell
attr title  "ID of the serving eNodeB for the UE, vector"
attr unit  ""
vector 263  CAIN.ueD2DTx[1].nic.phy  servingCell:vector  ETV
attr source  servingCell
attr title  "ID of the serving eNodeB for the UE, vector"
attr unit  ""
vector 295  CAIN.ueD2DTx[2].nic.phy  servingCell:vector  ETV
attr source  servingCell
attr title  "ID of the serving eNodeB for the UE, vector"
attr unit  ""
vector 327  CAIN.ueD2DTx[3].nic.phy  servingCell:vector  ETV
attr source  servingCell
attr title  "ID of the serving eNodeB for the UE, vector"
attr unit  ""
vector 359  CAIN.ueD2DTx[4].nic.phy  servingCell:vector  ETV
attr source  servingCell
attr title  "ID of the serving eNodeB for the UE, vector"
attr unit  ""
vector 391  CAIN.ueD2DTx[5].nic.phy  servingCell:vector  ETV
attr source  servingCell
attr title  "ID of the serving eNodeB for the UE, vector"
attr unit  ""
vector 423  CAIN.ueD2DTx[6].nic.phy  servingCell:vector  ETV
attr source  servingCell
attr title  "ID of the serving eNodeB for the UE, vector"
attr unit  ""
vector 455  CAIN.ueD2DTx[7].nic.phy  servingCell:vector  ETV
attr source  servingCell
attr title  "ID of the serving eNodeB for the UE, vector"
attr unit  ""
vector 487  CAIN.ueD2DTx[8].nic.phy  servingCell:vector  ETV
attr source  servingCell
attr title  "ID of the serving eNodeB for the UE, vector"
attr unit  ""
vector 519  CAIN.ueD2DTx[9].nic.phy  servingCell:vector  ETV
attr source  servingCell
attr title  "ID of the serving eNodeB for the UE, vector"
attr unit  ""
vector 551  CAIN.ueD2DTx[10].nic.phy  servingCell:vector  ETV
attr source  servingCell
attr title  "ID of the serving eNodeB for the UE, vector"
attr unit  ""
vector 583  CAIN.ueD2DTx[11].nic.phy  servingCell:vector  ETV
attr source  servingCell
attr title  "ID of the serving eNodeB for the UE, vector"
attr unit  ""
vector 615  CAIN.ueD2DTx[12].nic.phy  servingCell:vector  ETV
attr source  servingCell
attr title  "ID of the serving eNodeB for the UE, vector"
attr unit  ""
vector 647  CAIN.ueD2DTx[13].nic.phy  servingCell:vector  ETV
attr source  servingCell
attr title  "ID of the serving eNodeB for the UE, vector"
attr unit  ""
vector 679  CAIN.ueD2DTx[14].nic.phy  servingCell:vector  ETV
attr source  servingCell
attr title  "ID of the serving eNodeB for the UE, vector"
attr unit  ""
vector 711  CAIN.ueD2DTx[15].nic.phy  servingCell:vector  ETV
attr source  servingCell
attr title  "ID of the serving eNodeB for the UE, vector"
attr unit  ""
vector 743  CAIN.ueD2DTx[16].nic.phy  servingCell:vector  ETV
attr source  servingCell
attr title  "ID of the serving eNodeB for the UE, vector"
attr unit  ""
vector 775  CAIN.ueD2DTx[17].nic.phy  servingCell:vector  ETV
attr source  servingCell
attr title  "ID of the serving eNodeB for the UE, vector"
attr unit  ""
vector 807  CAIN.ueD2DTx[18].nic.phy  servingCell:vector  ETV
attr source  servingCell
attr title  "ID of the serving eNodeB for the UE, vector"
attr unit  ""
vector 839  CAIN.ueD2DTx[19].nic.phy  servingCell:vector  ETV
attr source  servingCell
attr title  "ID of the serving eNodeB for the UE, vector"
attr unit  ""
vector 863  CAIN.eNodeB.sctp  "Throughput of Association 3"  ETV
vector 885  CAIN.eNodeB1.sctp  "Throughput of Association 4"  ETV
vector 907  CAIN.eNodeB.sctp  "Throughput of Association 1"  ETV
vector 927  CAIN.eNodeB.sctp  "Fast Recovery State 1:10.0.5.2"  ETV
vector 956  CAIN.eNodeB1.sctp  "Throughput of Association 2"  ETV
vector 976  CAIN.eNodeB1.sctp  "Fast Recovery State 2:10.0.5.1"  ETV
vector 128  CAIN.eNodeB.x2ppp[0].queue  rcvdPk:vector(packetBytes)  ETV
attr interpolationmode  none
attr title  "received packets, vector(packetBytes)"
vector 130  CAIN.eNodeB.x2ppp[0].queue  queueingTime:vector  ETV
attr interpolationmode  none
attr title  "queueing time, vector"
vector 186  CAIN.eNodeB1.x2ppp[0].queue  rcvdPk:vector(packetBytes)  ETV
attr interpolationmode  none
attr title  "received packets, vector(packetBytes)"
vector 188  CAIN.eNodeB1.x2ppp[0].queue  queueingTime:vector  ETV
attr interpolationmode  none
attr title  "queueing time, vector"
vector 137  CAIN.eNodeB.x2ppp[0].ppp  rcvdPkFromHL:vector(packetBytes)  ETV
attr interpolationmode  none
attr source  packetReceivedFromUpper
attr title  "packets received from higher layer, vector(packetBytes)"
vector 133  CAIN.eNodeB.x2ppp[0].ppp  txPk:vector(packetBytes)  ETV
attr interpolationmode  none
attr source  packetSentToLower
attr title  "packets transmitted, vector(packetBytes)"
vector 195  CAIN.eNodeB1.x2ppp[0].ppp  rcvdPkFromHL:vector(packetBytes)  ETV
attr interpolationmode  none
attr source  packetReceivedFromUpper
attr title  "packets received from higher layer, vector(packetBytes)"
vector 191  CAIN.eNodeB1.x2ppp[0].ppp  txPk:vector(packetBytes)  ETV
attr interpolationmode  none
attr source  packetSentToLower
attr title  "packets transmitted, vector(packetBytes)"
vector 192  CAIN.eNodeB1.x2ppp[0].ppp  rxPkOk:vector(packetBytes)  ETV
attr interpolationmode  none
attr source  rxPkOk
attr title  "packets received OK, vector(packetBytes)"
vector 196  CAIN.eNodeB1.x2ppp[0].ppp  passedUpPk:vector(packetBytes)  ETV
attr interpolationmode  none
attr source  packetSentToUpper
attr title  "packets passed to higher layer, vector(packetBytes)"
vector 134  CAIN.eNodeB.x2ppp[0].ppp  rxPkOk:vector(packetBytes)  ETV
attr interpolationmode  none
attr source  rxPkOk
attr title  "packets received OK, vector(packetBytes)"
vector 138  CAIN.eNodeB.x2ppp[0].ppp  passedUpPk:vector(packetBytes)  ETV
attr interpolationmode  none
attr source  packetSentToUpper
attr title  "packets passed to higher layer, vector(packetBytes)"
vector 1005  CAIN.eNodeB1.sctp  "Throughput of Association 4"  ETV
vector 882  CAIN.eNodeB1.sctp  "Peer Rwnd 4"  ETV
vector 1025  CAIN.eNodeB1.sctp  "Fast Recovery State 5:10.0.4.1"  ETV
vector 1052  CAIN.eNodeB1.sctp  "Fast Recovery State 5:10.0.2.2"  ETV
vector 1079  CAIN.eNodeB1.sctp  "Fast Recovery State 5:10.0.5.1"  ETV
vector 1108  CAIN.eNodeB.sctp  "Throughput of Association 3"  ETV
vector 860  CAIN.eNodeB.sctp  "Peer Rwnd 3"  ETV
vector 1128  CAIN.eNodeB.sctp  "Fast Recovery State 6:10.0.4.2"  ETV
vector 1155  CAIN.eNodeB.sctp  "Fast Recovery State 6:10.0.3.2"  ETV
vector 1182  CAIN.eNodeB.sctp  "Fast Recovery State 6:10.0.5.2"  ETV
vector 904  CAIN.eNodeB.sctp  "Peer Rwnd 1"  ETV
vector 1209  CAIN.eNodeB.sctp  "Fast Recovery State 1:10.0.4.2"  ETV
vector 1236  CAIN.eNodeB.sctp  "Fast Recovery State 1:10.0.3.2"  ETV
vector 953  CAIN.eNodeB1.sctp  "Peer Rwnd 2"  ETV
vector 1263  CAIN.eNodeB1.sctp  "Fast Recovery State 2:10.0.4.1"  ETV
vector 1290  CAIN.eNodeB1.sctp  "Fast Recovery State 2:10.0.2.2"  ETV
vector 1035  CAIN.eNodeB1.sctp  "Slow Start Threshold 5:10.0.2.2"  ETV
vector 1036  CAIN.eNodeB1.sctp  "Congestion Window 5:10.0.2.2"  ETV
vector 1037  CAIN.eNodeB1.sctp  "Bandwidth 5:10.0.2.2"  ETV
vector 1040  CAIN.eNodeB1.sctp  "HB Sent 5:10.0.2.2"  ETV
vector 1033  CAIN.eNodeB1.sctp  "RTO 5:10.0.2.2"  ETV
vector 1008  CAIN.eNodeB1.sctp  "Slow Start Threshold 5:10.0.4.1"  ETV
vector 1009  CAIN.eNodeB1.sctp  "Congestion Window 5:10.0.4.1"  ETV
vector 1010  CAIN.eNodeB1.sctp  "Bandwidth 5:10.0.4.1"  ETV
vector 1013  CAIN.eNodeB1.sctp  "HB Sent 5:10.0.4.1"  ETV
vector 1006  CAIN.eNodeB1.sctp  "RTO 5:10.0.4.1"  ETV
vector 1062  CAIN.eNodeB1.sctp  "Slow Start Threshold 5:10.0.5.1"  ETV
vector 1063  CAIN.eNodeB1.sctp  "Congestion Window 5:10.0.5.1"  ETV
vector 1064  CAIN.eNodeB1.sctp  "Bandwidth 5:10.0.5.1"  ETV
vector 1060  CAIN.eNodeB1.sctp  "RTO 5:10.0.5.1"  ETV
vector 1138  CAIN.eNodeB.sctp  "Slow Start Threshold 6:10.0.3.2"  ETV
vector 1139  CAIN.eNodeB.sctp  "Congestion Window 6:10.0.3.2"  ETV
vector 1140  CAIN.eNodeB.sctp  "Bandwidth 6:10.0.3.2"  ETV
vector 1143  CAIN.eNodeB.sctp  "HB Sent 6:10.0.3.2"  ETV
vector 1136  CAIN.eNodeB.sctp  "RTO 6:10.0.3.2"  ETV
vector 1111  CAIN.eNodeB.sctp  "Slow Start Threshold 6:10.0.4.2"  ETV
vector 1112  CAIN.eNodeB.sctp  "Congestion Window 6:10.0.4.2"  ETV
vector 1113  CAIN.eNodeB.sctp  "Bandwidth 6:10.0.4.2"  ETV
vector 1116  CAIN.eNodeB.sctp  "HB Sent 6:10.0.4.2"  ETV
vector 1109  CAIN.eNodeB.sctp  "RTO 6:10.0.4.2"  ETV
vector 1165  CAIN.eNodeB.sctp  "Slow Start Threshold 6:10.0.5.2"  ETV
vector 1166  CAIN.eNodeB.sctp  "Congestion Window 6:10.0.5.2"  ETV
vector 1167  CAIN.eNodeB.sctp  "Bandwidth 6:10.0.5.2"  ETV
vector 1163  CAIN.eNodeB.sctp  "RTO 6:10.0.5.2"  ETV
vector 916  CAIN.eNodeB.sctp  "HB ACK Sent 1:10.0.5.2"  ETV
vector 917  CAIN.eNodeB.sctp  "HB Received 1:10.0.5.2"  ETV
vector 965  CAIN.eNodeB1.sctp  "HB ACK Sent 2:10.0.5.1"  ETV
vector 966  CAIN.eNodeB1.sctp  "HB Received 2:10.0.5.1"  ETV
vector 1219  CAIN.eNodeB.sctp  "Slow Start Threshold 1:10.0.3.2"  ETV
vector 1220  CAIN.eNodeB.sctp  "Congestion Window 1:10.0.3.2"  ETV
vector 1221  CAIN.eNodeB.sctp  "Bandwidth 1:10.0.3.2"  ETV
vector 1224  CAIN.eNodeB.sctp  "HB Sent 1:10.0.3.2"  ETV
vector 1217  CAIN.eNodeB.sctp  "RTO 1:10.0.3.2"  ETV
vector 1192  CAIN.eNodeB.sctp  "Slow Start Threshold 1:10.0.4.2"  ETV
vector 1193  CAIN.eNodeB.sctp  "Congestion Window 1:10.0.4.2"  ETV
vector 1194  CAIN.eNodeB.sctp  "Bandwidth 1:10.0.4.2"  ETV
vector 1197  CAIN.eNodeB.sctp  "HB Sent 1:10.0.4.2"  ETV
vector 1190  CAIN.eNodeB.sctp  "RTO 1:10.0.4.2"  ETV
vector 910  CAIN.eNodeB.sctp  "Slow Start Threshold 1:10.0.5.2"  ETV
vector 911  CAIN.eNodeB.sctp  "Congestion Window 1:10.0.5.2"  ETV
vector 912  CAIN.eNodeB.sctp  "Bandwidth 1:10.0.5.2"  ETV
vector 908  CAIN.eNodeB.sctp  "RTO 1:10.0.5.2"  ETV
vector 1273  CAIN.eNodeB1.sctp  "Slow Start Threshold 2:10.0.2.2"  ETV
vector 1274  CAIN.eNodeB1.sctp  "Congestion Window 2:10.0.2.2"  ETV
vector 1275  CAIN.eNodeB1.sctp  "Bandwidth 2:10.0.2.2"  ETV
vector 1278  CAIN.eNodeB1.sctp  "HB Sent 2:10.0.2.2"  ETV
vector 1271  CAIN.eNodeB1.sctp  "RTO 2:10.0.2.2"  ETV
vector 1246  CAIN.eNodeB1.sctp  "Slow Start Threshold 2:10.0.4.1"  ETV
vector 1247  CAIN.eNodeB1.sctp  "Congestion Window 2:10.0.4.1"  ETV
vector 1248  CAIN.eNodeB1.sctp  "Bandwidth 2:10.0.4.1"  ETV
vector 1251  CAIN.eNodeB1.sctp  "HB Sent 2:10.0.4.1"  ETV
vector 1244  CAIN.eNodeB1.sctp  "RTO 2:10.0.4.1"  ETV
vector 959  CAIN.eNodeB1.sctp  "Slow Start Threshold 2:10.0.5.1"  ETV
vector 960  CAIN.eNodeB1.sctp  "Congestion Window 2:10.0.5.1"  ETV
vector 961  CAIN.eNodeB1.sctp  "Bandwidth 2:10.0.5.1"  ETV
vector 957  CAIN.eNodeB1.sctp  "RTO 2:10.0.5.1"  ETV
vector 1173  CAIN.eNodeB.sctp  "HB ACK Received 6:10.0.5.2"  ETV
vector 1164  CAIN.eNodeB.sctp  "RTT 6:10.0.5.2"  ETV
vector 1070  CAIN.eNodeB1.sctp  "HB ACK Received 5:10.0.5.1"  ETV
vector 1061  CAIN.eNodeB1.sctp  "RTT 5:10.0.5.1"  ETV
vector 1171  CAIN.eNodeB.sctp  "HB ACK Sent 6:10.0.5.2"  ETV
vector 1172  CAIN.eNodeB.sctp  "HB Received 6:10.0.5.2"  ETV
vector 1068  CAIN.eNodeB1.sctp  "HB ACK Sent 5:10.0.5.1"  ETV
vector 1069  CAIN.eNodeB1.sctp  "HB Received 5:10.0.5.1"  ETV
vector 967  CAIN.eNodeB1.sctp  "HB ACK Received 2:10.0.5.1"  ETV
vector 958  CAIN.eNodeB1.sctp  "RTT 2:10.0.5.1"  ETV
vector 918  CAIN.eNodeB.sctp  "HB ACK Received 1:10.0.5.2"  ETV
vector 909  CAIN.eNodeB.sctp  "RTT 1:10.0.5.2"  ETV
vector 96  CAIN.eNodeB.nic.mac  receivedPacketFromLowerLayer:vector(packetBytes)  ETV
attr interpolationmode  none
attr source  receivedPacketFromLowerLayer
vector 1305  CAIN.eNodeB.sctp  "SendQueue of Association 6"  ETV
vector 1168  CAIN.eNodeB.sctp  "TSN Sent 6:10.0.5.2"  ETV
vector 1175  CAIN.eNodeB.sctp  "Outstanding Bytes 6:10.0.5.2"  ETV
vector 848  CAIN.eNodeB.sctp  "Outstanding Bytes 3:Total"  ETV
vector 1174  CAIN.eNodeB.sctp  "Queued Sent Bytes 6:10.0.5.2"  ETV
vector 847  CAIN.eNodeB.sctp  "Queued Sent Bytes 3:Total"  ETV
vector 963  CAIN.eNodeB1.sctp  "TSN Received 2:10.0.5.1"  ETV
vector 939  CAIN.eNodeB1.sctp  "Queued Received Bytes 2:Total"  ETV
vector 935  CAIN.eNodeB1.sctp  "Advertised Receiver Window 2"  ETV
vector 944  CAIN.eNodeB1.sctp  "Number of Total Gap Blocks Stored 2"  ETV
vector 945  CAIN.eNodeB1.sctp  "Number of Revokable Gap Blocks Stored 2"  ETV
vector 946  CAIN.eNodeB1.sctp  "Number of Non-Revokable Gap Blocks Stored 2"  ETV
vector 947  CAIN.eNodeB1.sctp  "Number of Duplicate TSNs Stored 2"  ETV
vector 951  CAIN.eNodeB1.sctp  "Length of SACK Sent 2"  ETV
vector 948  CAIN.eNodeB1.sctp  "Number of Revokable Gap Blocks Sent 2"  ETV
vector 949  CAIN.eNodeB1.sctp  "Number of Non-Revokable Gap Blocks Sent 2"  ETV
vector 950  CAIN.eNodeB1.sctp  "Number of Duplicate TSNs Sent 2"  ETV
vector 955  CAIN.eNodeB1.sctp  "End to End Delay of Association 2"  ETV
vector 199  CAIN.eNodeB1.x2App[0].client  rcvdPk:vector(packetBytes)  ETV
attr interpolationmode  none
attr source  rcvdPk
attr title  "packets received, vector(packetBytes)"
vector 1304  CAIN.eNodeB.sctp  "Number of Gap Blocks in Last SACK of Association 6"  ETV
vector 849  CAIN.eNodeB.sctp  "Number of Revokable Gap Blocks in SACK 3"  ETV
vector 850  CAIN.eNodeB.sctp  "Number of Non-Revokable Gap Blocks in SACK 3"  ETV
vector 1185  CAIN.eNodeB.sctp  "TSN Acked CumAck 6:10.0.5.2"  ETV
vector 1151  CAIN.eNodeB.sctp  "Number of Gap Acked Chunks in Last SACK 6:10.0.3.2"  ETV
vector 1152  CAIN.eNodeB.sctp  "Number of Non-Revokable Gap Acked Chunks in Last SACK 6:10.0.3.2"  ETV
vector 1153  CAIN.eNodeB.sctp  "Number of Gap Missed Chunks in Last SACK 6:10.0.3.2"  ETV
vector 1124  CAIN.eNodeB.sctp  "Number of Gap Acked Chunks in Last SACK 6:10.0.4.2"  ETV
vector 1125  CAIN.eNodeB.sctp  "Number of Non-Revokable Gap Acked Chunks in Last SACK 6:10.0.4.2"  ETV
vector 1126  CAIN.eNodeB.sctp  "Number of Gap Missed Chunks in Last SACK 6:10.0.4.2"  ETV
vector 1178  CAIN.eNodeB.sctp  "Number of Gap Acked Chunks in Last SACK 6:10.0.5.2"  ETV
vector 1179  CAIN.eNodeB.sctp  "Number of Non-Revokable Gap Acked Chunks in Last SACK 6:10.0.5.2"  ETV
vector 1180  CAIN.eNodeB.sctp  "Number of Gap Missed Chunks in Last SACK 6:10.0.5.2"  ETV
vector 859  CAIN.eNodeB.sctp  "Arwnd in Last SACK 3"  ETV
vector 1187  CAIN.eNodeB.sctp  "TSN PseudoCumAck 6:10.0.5.2"  ETV
vector 1188  CAIN.eNodeB.sctp  "TSN RTXPseudoCumAck 6:10.0.5.2"  ETV
vector 1181  CAIN.eNodeB.sctp  "Partial Bytes Acked 6:10.0.5.2"  ETV
vector 1333  CAIN.ueD2DTx[17].tcp  tcpRcvQueueBytes  ETV
vector 1320  CAIN.ueD2DTx[17].tcp  "advertised window"  ETV
vector 1319  CAIN.ueD2DTx[17].tcp  "receive window"  ETV
vector 1322  CAIN.ueD2DTx[17].tcp  "sent ack"  ETV
vector 749  CAIN.ueD2DTx[17].nic.pdcpRrc  receivedPacketFromUpperLayer:vector(packetBytes)  ETV
attr interpolationmode  none
attr source  receivedPacketFromUpperLayer
vector 752  CAIN.ueD2DTx[17].nic.pdcpRrc  sentPacketToLowerLayer:vector(packetBytes)  ETV
attr interpolationmode  none
attr source  sentPacketToLowerLayer
vector 753  CAIN.ueD2DTx[17].nic.mac  receivedPacketFromUpperLayer:vector(packetBytes)  ETV
attr interpolationmode  none
attr source  receivedPacketFromUpperLayer
vector 763  CAIN.ueD2DTx[17].nic.mac  CainHopMessageSent:vector  ETV
attr interpolationmode  none
attr title  "# of Sent CAIN hop message, vector"
vector 756  CAIN.ueD2DTx[17].nic.mac  sentPacketToLowerLayer:vector(packetBytes)  ETV
attr interpolationmode  none
attr source  sentPacketToLowerLayer
vector 338  CAIN.ueD2DTx[4].nic.mac  receivedPacketFromLowerLayer:vector(packetBytes)  ETV
attr interpolationmode  none
attr source  receivedPacketFromLowerLayer
vector 340  CAIN.ueD2DTx[4].nic.mac  sentPacketToLowerLayer:vector(packetBytes)  ETV
attr interpolationmode  none
attr source  sentPacketToLowerLayer
vector 594  CAIN.ueD2DTx[12].nic.mac  receivedPacketFromLowerLayer:vector(packetBytes)  ETV
attr interpolationmode  none
attr source  receivedPacketFromLowerLayer
vector 596  CAIN.ueD2DTx[12].nic.mac  sentPacketToLowerLayer:vector(packetBytes)  ETV
attr interpolationmode  none
attr source  sentPacketToLowerLayer
vector 111  CAIN.eNodeB.nic.mac  racpkt:vector  ETV
attr interpolationmode  none
attr title  "eNB received racpkt message, vector"
vector 112  CAIN.eNodeB.nic.mac  racDistanceSignal:vector  ETV
attr interpolationmode  none
attr title  "Rac distance to enb, vector"
vector 113  CAIN.eNodeB.nic.mac  racServedDevsSignal:vector  ETV
attr interpolationmode  none
attr title  "# of devices served on rac arriavall, vector"
vector 106  CAIN.eNodeB.nic.mac  DistanceSignal:vector  ETV
attr interpolationmode  none
attr title  "Distance to enb, vector"
vector 101  CAIN.eNodeB.nic.mac  CainHopMessage:vector  ETV
attr interpolationmode  none
attr title  "eNB received CAIN hop message, vector"
vector 98  CAIN.eNodeB.nic.mac  sentPacketToLowerLayer:vector(packetBytes)  ETV
attr interpolationmode  none
attr source  sentPacketToLowerLayer
vector 601  CAIN.ueD2DTx[12].nic.mac  DropedHopMessage:vector  ETV
attr interpolationmode  none
attr title  "Droped Hop CAIN message due to RB not available, vector"
vector 1357  CAIN.ueD2DTx[8].tcp  tcpRcvQueueBytes  ETV
vector 1344  CAIN.ueD2DTx[8].tcp  "advertised window"  ETV
vector 1343  CAIN.ueD2DTx[8].tcp  "receive window"  ETV
vector 1346  CAIN.ueD2DTx[8].tcp  "sent ack"  ETV
vector 461  CAIN.ueD2DTx[8].nic.pdcpRrc  receivedPacketFromUpperLayer:vector(packetBytes)  ETV
attr interpolationmode  none
attr source  receivedPacketFromUpperLayer
vector 464  CAIN.ueD2DTx[8].nic.pdcpRrc  sentPacketToLowerLayer:vector(packetBytes)  ETV
attr interpolationmode  none
attr source  sentPacketToLowerLayer
vector 465  CAIN.ueD2DTx[8].nic.mac  receivedPacketFromUpperLayer:vector(packetBytes)  ETV
attr interpolationmode  none
attr source  receivedPacketFromUpperLayer
vector 474  CAIN.ueD2DTx[8].nic.mac  CainMessageSent:vector  ETV
attr interpolationmode  none
attr title  "# of Sent CAIN message, vector"
vector 468  CAIN.ueD2DTx[8].nic.mac  sentPacketToLowerLayer:vector(packetBytes)  ETV
attr interpolationmode  none
attr source  sentPacketToLowerLayer
vector 690  CAIN.ueD2DTx[15].nic.mac  receivedPacketFromLowerLayer:vector(packetBytes)  ETV
attr interpolationmode  none
attr source  receivedPacketFromLowerLayer
vector 692  CAIN.ueD2DTx[15].nic.mac  sentPacketToLowerLayer:vector(packetBytes)  ETV
attr interpolationmode  none
attr source  sentPacketToLowerLayer
vector 100  CAIN.eNodeB.nic.mac  CainMessage:vector  ETV
attr interpolationmode  none
attr title  "eNB received CAIN message, vector"
vector 1381  CAIN.ueD2DTx[9].tcp  tcpRcvQueueBytes  ETV
vector 1368  CAIN.ueD2DTx[9].tcp  "advertised window"  ETV
vector 1367  CAIN.ueD2DTx[9].tcp  "receive window"  ETV
vector 1370  CAIN.ueD2DTx[9].tcp  "sent ack"  ETV
vector 493  CAIN.ueD2DTx[9].nic.pdcpRrc  receivedPacketFromUpperLayer:vector(packetBytes)  ETV
attr interpolationmode  none
attr source  receivedPacketFromUpperLayer
vector 496  CAIN.ueD2DTx[9].nic.pdcpRrc  sentPacketToLowerLayer:vector(packetBytes)  ETV
attr interpolationmode  none
attr source  sentPacketToLowerLayer
vector 497  CAIN.ueD2DTx[9].nic.mac  receivedPacketFromUpperLayer:vector(packetBytes)  ETV
attr interpolationmode  none
attr source  receivedPacketFromUpperLayer
vector 507  CAIN.ueD2DTx[9].nic.mac  CainHopMessageSent:vector  ETV
attr interpolationmode  none
attr title  "# of Sent CAIN hop message, vector"
vector 500  CAIN.ueD2DTx[9].nic.mac  sentPacketToLowerLayer:vector(packetBytes)  ETV
attr interpolationmode  none
attr source  sentPacketToLowerLayer
vector 696  CAIN.ueD2DTx[15].nic.mac  DropedCainMessage:vector  ETV
attr interpolationmode  none
attr title  "Droped CAIN message due to RB not available, vector"
vector 466  CAIN.ueD2DTx[8].nic.mac  receivedPacketFromLowerLayer:vector(packetBytes)  ETV
attr interpolationmode  none
attr source  receivedPacketFromLowerLayer
vector 697  CAIN.ueD2DTx[15].nic.mac  DropedHopMessage:vector  ETV
attr interpolationmode  none
attr title  "Droped Hop CAIN message due to RB not available, vector"
vector 1405  CAIN.ueD2DTx[7].tcp  tcpRcvQueueBytes  ETV
vector 1392  CAIN.ueD2DTx[7].tcp  "advertised window"  ETV
vector 1391  CAIN.ueD2DTx[7].tcp  "receive window"  ETV
vector 1394  CAIN.ueD2DTx[7].tcp  "sent ack"  ETV
vector 429  CAIN.ueD2DTx[7].nic.pdcpRrc  receivedPacketFromUpperLayer:vector(packetBytes)  ETV
attr interpolationmode  none
attr source  receivedPacketFromUpperLayer
vector 432  CAIN.ueD2DTx[7].nic.pdcpRrc  sentPacketToLowerLayer:vector(packetBytes)  ETV
attr interpolationmode  none
attr source  sentPacketToLowerLayer
vector 433  CAIN.ueD2DTx[7].nic.mac  receivedPacketFromUpperLayer:vector(packetBytes)  ETV
attr interpolationmode  none
attr source  receivedPacketFromUpperLayer
vector 443  CAIN.ueD2DTx[7].nic.mac  CainHopMessageSent:vector  ETV
attr interpolationmode  none
attr title  "# of Sent CAIN hop message, vector"
vector 436  CAIN.ueD2DTx[7].nic.mac  sentPacketToLowerLayer:vector(packetBytes)  ETV
attr interpolationmode  none
attr source  sentPacketToLowerLayer
vector 1429  CAIN.ueD2DTx[5].tcp  tcpRcvQueueBytes  ETV
vector 1416  CAIN.ueD2DTx[5].tcp  "advertised window"  ETV
vector 1415  CAIN.ueD2DTx[5].tcp  "receive window"  ETV
vector 1418  CAIN.ueD2DTx[5].tcp  "sent ack"  ETV
vector 365  CAIN.ueD2DTx[5].nic.pdcpRrc  receivedPacketFromUpperLayer:vector(packetBytes)  ETV
attr interpolationmode  none
attr source  receivedPacketFromUpperLayer
vector 368  CAIN.ueD2DTx[5].nic.pdcpRrc  sentPacketToLowerLayer:vector(packetBytes)  ETV
attr interpolationmode  none
attr source  sentPacketToLowerLayer
vector 369  CAIN.ueD2DTx[5].nic.mac  receivedPacketFromUpperLayer:vector(packetBytes)  ETV
attr interpolationmode  none
attr source  receivedPacketFromUpperLayer
vector 379  CAIN.ueD2DTx[5].nic.mac  CainHopMessageSent:vector  ETV
attr interpolationmode  none
attr title  "# of Sent CAIN hop message, vector"
vector 372  CAIN.ueD2DTx[5].nic.mac  sentPacketToLowerLayer:vector(packetBytes)  ETV
attr interpolationmode  none
attr source  sentPacketToLowerLayer
vector 1453  CAIN.ueD2DTx[10].tcp  tcpRcvQueueBytes  ETV
vector 1440  CAIN.ueD2DTx[10].tcp  "advertised window"  ETV
vector 1439  CAIN.ueD2DTx[10].tcp  "receive window"  ETV
vector 1442  CAIN.ueD2DTx[10].tcp  "sent ack"  ETV
vector 525  CAIN.ueD2DTx[10].nic.pdcpRrc  receivedPacketFromUpperLayer:vector(packetBytes)  ETV
attr interpolationmode  none
attr source  receivedPacketFromUpperLayer
vector 528  CAIN.ueD2DTx[10].nic.pdcpRrc  sentPacketToLowerLayer:vector(packetBytes)  ETV
attr interpolationmode  none
attr source  sentPacketToLowerLayer
vector 529  CAIN.ueD2DTx[10].nic.mac  receivedPacketFromUpperLayer:vector(packetBytes)  ETV
attr interpolationmode  none
attr source  receivedPacketFromUpperLayer
vector 1477  CAIN.ueD2DTx[13].tcp  tcpRcvQueueBytes  ETV
vector 1464  CAIN.ueD2DTx[13].tcp  "advertised window"  ETV
vector 1463  CAIN.ueD2DTx[13].tcp  "receive window"  ETV
vector 1466  CAIN.ueD2DTx[13].tcp  "sent ack"  ETV
vector 621  CAIN.ueD2DTx[13].nic.pdcpRrc  receivedPacketFromUpperLayer:vector(packetBytes)  ETV
attr interpolationmode  none
attr source  receivedPacketFromUpperLayer
vector 624  CAIN.ueD2DTx[13].nic.pdcpRrc  sentPacketToLowerLayer:vector(packetBytes)  ETV
attr interpolationmode  none
attr source  sentPacketToLowerLayer
vector 625  CAIN.ueD2DTx[13].nic.mac  receivedPacketFromUpperLayer:vector(packetBytes)  ETV
attr interpolationmode  none
attr source  receivedPacketFromUpperLayer
vector 539  CAIN.ueD2DTx[10].nic.mac  CainHopMessageSent:vector  ETV
attr interpolationmode  none
attr title  "# of Sent CAIN hop message, vector"
vector 532  CAIN.ueD2DTx[10].nic.mac  sentPacketToLowerLayer:vector(packetBytes)  ETV
attr interpolationmode  none
attr source  sentPacketToLowerLayer
vector 635  CAIN.ueD2DTx[13].nic.mac  CainHopMessageSent:vector  ETV
attr interpolationmode  none
attr title  "# of Sent CAIN hop message, vector"
vector 628  CAIN.ueD2DTx[13].nic.mac  sentPacketToLowerLayer:vector(packetBytes)  ETV
attr interpolationmode  none
attr source  sentPacketToLowerLayer
vector 1501  CAIN.ueD2DTx[0].tcp  tcpRcvQueueBytes  ETV
vector 1488  CAIN.ueD2DTx[0].tcp  "advertised window"  ETV
vector 1487  CAIN.ueD2DTx[0].tcp  "receive window"  ETV
vector 1490  CAIN.ueD2DTx[0].tcp  "sent ack"  ETV
vector 205  CAIN.ueD2DTx[0].nic.pdcpRrc  receivedPacketFromUpperLayer:vector(packetBytes)  ETV
attr interpolationmode  none
attr source  receivedPacketFromUpperLayer
vector 208  CAIN.ueD2DTx[0].nic.pdcpRrc  sentPacketToLowerLayer:vector(packetBytes)  ETV
attr interpolationmode  none
attr source  sentPacketToLowerLayer
vector 209  CAIN.ueD2DTx[0].nic.mac  receivedPacketFromUpperLayer:vector(packetBytes)  ETV
attr interpolationmode  none
attr source  receivedPacketFromUpperLayer
vector 219  CAIN.ueD2DTx[0].nic.mac  CainHopMessageSent:vector  ETV
attr interpolationmode  none
attr title  "# of Sent CAIN hop message, vector"
vector 212  CAIN.ueD2DTx[0].nic.mac  sentPacketToLowerLayer:vector(packetBytes)  ETV
attr interpolationmode  none
attr source  sentPacketToLowerLayer
vector 1525  CAIN.ueD2DTx[16].tcp  tcpRcvQueueBytes  ETV
vector 1512  CAIN.ueD2DTx[16].tcp  "advertised window"  ETV
vector 1511  CAIN.ueD2DTx[16].tcp  "receive window"  ETV
vector 1514  CAIN.ueD2DTx[16].tcp  "sent ack"  ETV
vector 717  CAIN.ueD2DTx[16].nic.pdcpRrc  receivedPacketFromUpperLayer:vector(packetBytes)  ETV
attr interpolationmode  none
attr source  receivedPacketFromUpperLayer
vector 720  CAIN.ueD2DTx[16].nic.pdcpRrc  sentPacketToLowerLayer:vector(packetBytes)  ETV
attr interpolationmode  none
attr source  sentPacketToLowerLayer
vector 721  CAIN.ueD2DTx[16].nic.mac  receivedPacketFromUpperLayer:vector(packetBytes)  ETV
attr interpolationmode  none
attr source  receivedPacketFromUpperLayer
vector 731  CAIN.ueD2DTx[16].nic.mac  CainHopMessageSent:vector  ETV
attr interpolationmode  none
attr title  "# of Sent CAIN hop message, vector"
vector 724  CAIN.ueD2DTx[16].nic.mac  sentPacketToLowerLayer:vector(packetBytes)  ETV
attr interpolationmode  none
attr source  sentPacketToLowerLayer
vector 1301  CAIN.eNodeB1.sctp  "SendQueue of Association 5"  ETV
vector 1065  CAIN.eNodeB1.sctp  "TSN Sent 5:10.0.5.1"  ETV
vector 1072  CAIN.eNodeB1.sctp  "Outstanding Bytes 5:10.0.5.1"  ETV
vector 870  CAIN.eNodeB1.sctp  "Outstanding Bytes 4:Total"  ETV
vector 1071  CAIN.eNodeB1.sctp  "Queued Sent Bytes 5:10.0.5.1"  ETV
vector 869  CAIN.eNodeB1.sctp  "Queued Sent Bytes 4:Total"  ETV
vector 914  CAIN.eNodeB.sctp  "TSN Received 1:10.0.5.2"  ETV
vector 890  CAIN.eNodeB.sctp  "Queued Received Bytes 1:Total"  ETV
vector 886  CAIN.eNodeB.sctp  "Advertised Receiver Window 1"  ETV
vector 895  CAIN.eNodeB.sctp  "Number of Total Gap Blocks Stored 1"  ETV
vector 896  CAIN.eNodeB.sctp  "Number of Revokable Gap Blocks Stored 1"  ETV
vector 897  CAIN.eNodeB.sctp  "Number of Non-Revokable Gap Blocks Stored 1"  ETV
vector 898  CAIN.eNodeB.sctp  "Number of Duplicate TSNs Stored 1"  ETV
vector 902  CAIN.eNodeB.sctp  "Length of SACK Sent 1"  ETV
vector 899  CAIN.eNodeB.sctp  "Number of Revokable Gap Blocks Sent 1"  ETV
vector 900  CAIN.eNodeB.sctp  "Number of Non-Revokable Gap Blocks Sent 1"  ETV
vector 901  CAIN.eNodeB.sctp  "Number of Duplicate TSNs Sent 1"  ETV
vector 906  CAIN.eNodeB.sctp  "End to End Delay of Association 1"  ETV
vector 141  CAIN.eNodeB.x2App[0].client  rcvdPk:vector(packetBytes)  ETV
attr interpolationmode  none
attr source  rcvdPk
attr title  "packets received, vector(packetBytes)"
vector 1300  CAIN.eNodeB1.sctp  "Number of Gap Blocks in Last SACK of Association 5"  ETV
vector 871  CAIN.eNodeB1.sctp  "Number of Revokable Gap Blocks in SACK 4"  ETV
vector 872  CAIN.eNodeB1.sctp  "Number of Non-Revokable Gap Blocks in SACK 4"  ETV
vector 1082  CAIN.eNodeB1.sctp  "TSN Acked CumAck 5:10.0.5.1"  ETV
vector 1048  CAIN.eNodeB1.sctp  "Number of Gap Acked Chunks in Last SACK 5:10.0.2.2"  ETV
vector 1049  CAIN.eNodeB1.sctp  "Number of Non-Revokable Gap Acked Chunks in Last SACK 5:10.0.2.2"  ETV
vector 1050  CAIN.eNodeB1.sctp  "Number of Gap Missed Chunks in Last SACK 5:10.0.2.2"  ETV
vector 1021  CAIN.eNodeB1.sctp  "Number of Gap Acked Chunks in Last SACK 5:10.0.4.1"  ETV
vector 1022  CAIN.eNodeB1.sctp  "Number of Non-Revokable Gap Acked Chunks in Last SACK 5:10.0.4.1"  ETV
vector 1023  CAIN.eNodeB1.sctp  "Number of Gap Missed Chunks in Last SACK 5:10.0.4.1"  ETV
vector 1075  CAIN.eNodeB1.sctp  "Number of Gap Acked Chunks in Last SACK 5:10.0.5.1"  ETV
vector 1076  CAIN.eNodeB1.sctp  "Number of Non-Revokable Gap Acked Chunks in Last SACK 5:10.0.5.1"  ETV
vector 1077  CAIN.eNodeB1.sctp  "Number of Gap Missed Chunks in Last SACK 5:10.0.5.1"  ETV
vector 881  CAIN.eNodeB1.sctp  "Arwnd in Last SACK 4"  ETV
vector 1084  CAIN.eNodeB1.sctp  "TSN PseudoCumAck 5:10.0.5.1"  ETV
vector 1085  CAIN.eNodeB1.sctp  "TSN RTXPseudoCumAck 5:10.0.5.1"  ETV
vector 1078  CAIN.eNodeB1.sctp  "Partial Bytes Acked 5:10.0.5.1"  ETV
vector 1549  CAIN.ueD2DTx[18].tcp  tcpRcvQueueBytes  ETV
vector 1536  CAIN.ueD2DTx[18].tcp  "advertised window"  ETV
vector 1535  CAIN.ueD2DTx[18].tcp  "receive window"  ETV
vector 1538  CAIN.ueD2DTx[18].tcp  "sent ack"  ETV
vector 781  CAIN.ueD2DTx[18].nic.pdcpRrc  receivedPacketFromUpperLayer:vector(packetBytes)  ETV
attr interpolationmode  none
attr source  receivedPacketFromUpperLayer
vector 784  CAIN.ueD2DTx[18].nic.pdcpRrc  sentPacketToLowerLayer:vector(packetBytes)  ETV
attr interpolationmode  none
attr source  sentPacketToLowerLayer
vector 785  CAIN.ueD2DTx[18].nic.mac  receivedPacketFromUpperLayer:vector(packetBytes)  ETV
attr interpolationmode  none
attr source  receivedPacketFromUpperLayer
vector 795  CAIN.ueD2DTx[18].nic.mac  CainHopMessageSent:vector  ETV
attr interpolationmode  none
attr title  "# of Sent CAIN hop message, vector"
vector 788  CAIN.ueD2DTx[18].nic.mac  sentPacketToLowerLayer:vector(packetBytes)  ETV
attr interpolationmode  none
attr source  sentPacketToLowerLayer
vector 1573  CAIN.ueD2DTx[14].tcp  tcpRcvQueueBytes  ETV
vector 1560  CAIN.ueD2DTx[14].tcp  "advertised window"  ETV
vector 1559  CAIN.ueD2DTx[14].tcp  "receive window"  ETV
vector 1562  CAIN.ueD2DTx[14].tcp  "sent ack"  ETV
vector 653  CAIN.ueD2DTx[14].nic.pdcpRrc  receivedPacketFromUpperLayer:vector(packetBytes)  ETV
attr interpolationmode  none
attr source  receivedPacketFromUpperLayer
vector 656  CAIN.ueD2DTx[14].nic.pdcpRrc  sentPacketToLowerLayer:vector(packetBytes)  ETV
attr interpolationmode  none
attr source  sentPacketToLowerLayer
vector 657  CAIN.ueD2DTx[14].nic.mac  receivedPacketFromUpperLayer:vector(packetBytes)  ETV
attr interpolationmode  none
attr source  receivedPacketFromUpperLayer
vector 667  CAIN.ueD2DTx[14].nic.mac  CainHopMessageSent:vector  ETV
attr interpolationmode  none
attr title  "# of Sent CAIN hop message, vector"
vector 660  CAIN.ueD2DTx[14].nic.mac  sentPacketToLowerLayer:vector(packetBytes)  ETV
attr interpolationmode  none
attr source  sentPacketToLowerLayer
vector 154  CAIN.eNodeB1.nic.mac  receivedPacketFromLowerLayer:vector(packetBytes)  ETV
attr interpolationmode  none
attr source  receivedPacketFromLowerLayer
vector 1597  CAIN.ueD2DTx[11].tcp  tcpRcvQueueBytes  ETV
vector 1584  CAIN.ueD2DTx[11].tcp  "advertised window"  ETV
vector 1583  CAIN.ueD2DTx[11].tcp  "receive window"  ETV
vector 1586  CAIN.ueD2DTx[11].tcp  "sent ack"  ETV
vector 557  CAIN.ueD2DTx[11].nic.pdcpRrc  receivedPacketFromUpperLayer:vector(packetBytes)  ETV
attr interpolationmode  none
attr source  receivedPacketFromUpperLayer
vector 560  CAIN.ueD2DTx[11].nic.pdcpRrc  sentPacketToLowerLayer:vector(packetBytes)  ETV
attr interpolationmode  none
attr source  sentPacketToLowerLayer
vector 561  CAIN.ueD2DTx[11].nic.mac  receivedPacketFromUpperLayer:vector(packetBytes)  ETV
attr interpolationmode  none
attr source  receivedPacketFromUpperLayer
vector 1621  CAIN.ueD2DTx[4].tcp  tcpRcvQueueBytes  ETV
vector 1608  CAIN.ueD2DTx[4].tcp  "advertised window"  ETV
vector 1607  CAIN.ueD2DTx[4].tcp  "receive window"  ETV
vector 1610  CAIN.ueD2DTx[4].tcp  "sent ack"  ETV
vector 333  CAIN.ueD2DTx[4].nic.pdcpRrc  receivedPacketFromUpperLayer:vector(packetBytes)  ETV
attr interpolationmode  none
attr source  receivedPacketFromUpperLayer
vector 336  CAIN.ueD2DTx[4].nic.pdcpRrc  sentPacketToLowerLayer:vector(packetBytes)  ETV
attr interpolationmode  none
attr source  sentPacketToLowerLayer
vector 337  CAIN.ueD2DTx[4].nic.mac  receivedPacketFromUpperLayer:vector(packetBytes)  ETV
attr interpolationmode  none
attr source  receivedPacketFromUpperLayer
vector 346  CAIN.ueD2DTx[4].nic.mac  CainMessageSent:vector  ETV
attr interpolationmode  none
attr title  "# of Sent CAIN message, vector"
vector 600  CAIN.ueD2DTx[12].nic.mac  DropedCainMessage:vector  ETV
attr interpolationmode  none
attr title  "Droped CAIN message due to RB not available, vector"
vector 1645  CAIN.ueD2DTx[12].tcp  tcpRcvQueueBytes  ETV
vector 1632  CAIN.ueD2DTx[12].tcp  "advertised window"  ETV
vector 1631  CAIN.ueD2DTx[12].tcp  "receive window"  ETV
vector 1634  CAIN.ueD2DTx[12].tcp  "sent ack"  ETV
vector 589  CAIN.ueD2DTx[12].nic.pdcpRrc  receivedPacketFromUpperLayer:vector(packetBytes)  ETV
attr interpolationmode  none
attr source  receivedPacketFromUpperLayer
vector 592  CAIN.ueD2DTx[12].nic.pdcpRrc  sentPacketToLowerLayer:vector(packetBytes)  ETV
attr interpolationmode  none
attr source  sentPacketToLowerLayer
vector 593  CAIN.ueD2DTx[12].nic.mac  receivedPacketFromUpperLayer:vector(packetBytes)  ETV
attr interpolationmode  none
attr source  receivedPacketFromUpperLayer
vector 1669  CAIN.ueD2DTx[6].tcp  tcpRcvQueueBytes  ETV
vector 1656  CAIN.ueD2DTx[6].tcp  "advertised window"  ETV
vector 1655  CAIN.ueD2DTx[6].tcp  "receive window"  ETV
vector 1658  CAIN.ueD2DTx[6].tcp  "sent ack"  ETV
vector 397  CAIN.ueD2DTx[6].nic.pdcpRrc  receivedPacketFromUpperLayer:vector(packetBytes)  ETV
attr interpolationmode  none
attr source  receivedPacketFromUpperLayer
vector 400  CAIN.ueD2DTx[6].nic.pdcpRrc  sentPacketToLowerLayer:vector(packetBytes)  ETV
attr interpolationmode  none
attr source  sentPacketToLowerLayer
vector 401  CAIN.ueD2DTx[6].nic.mac  receivedPacketFromUpperLayer:vector(packetBytes)  ETV
attr interpolationmode  none
attr source  receivedPacketFromUpperLayer
vector 404  CAIN.ueD2DTx[6].nic.mac  sentPacketToLowerLayer:vector(packetBytes)  ETV
attr interpolationmode  none
attr source  sentPacketToLowerLayer
vector 169  CAIN.eNodeB1.nic.mac  racpkt:vector  ETV
attr interpolationmode  none
attr title  "eNB received racpkt message, vector"
vector 170  CAIN.eNodeB1.nic.mac  racDistanceSignal:vector  ETV
attr interpolationmode  none
attr title  "Rac distance to enb, vector"
vector 171  CAIN.eNodeB1.nic.mac  racServedDevsSignal:vector  ETV
attr interpolationmode  none
attr title  "# of devices served on rac arriavall, vector"
vector 156  CAIN.eNodeB1.nic.mac  sentPacketToLowerLayer:vector(packetBytes)  ETV
attr interpolationmode  none
attr source  sentPacketToLowerLayer
vector 402  CAIN.ueD2DTx[6].nic.mac  receivedPacketFromLowerLayer:vector(packetBytes)  ETV
attr interpolationmode  none
attr source  receivedPacketFromLowerLayer
vector 1693  CAIN.ueD2DTx[1].tcp  tcpRcvQueueBytes  ETV
vector 1680  CAIN.ueD2DTx[1].tcp  "advertised window"  ETV
vector 1679  CAIN.ueD2DTx[1].tcp  "receive window"  ETV
vector 1682  CAIN.ueD2DTx[1].tcp  "sent ack"  ETV
vector 237  CAIN.ueD2DTx[1].nic.pdcpRrc  receivedPacketFromUpperLayer:vector(packetBytes)  ETV
attr interpolationmode  none
attr source  receivedPacketFromUpperLayer
vector 240  CAIN.ueD2DTx[1].nic.pdcpRrc  sentPacketToLowerLayer:vector(packetBytes)  ETV
attr interpolationmode  none
attr source  sentPacketToLowerLayer
vector 241  CAIN.ueD2DTx[1].nic.mac  receivedPacketFromUpperLayer:vector(packetBytes)  ETV
attr interpolationmode  none
attr source  receivedPacketFromUpperLayer
vector 244  CAIN.ueD2DTx[1].nic.mac  sentPacketToLowerLayer:vector(packetBytes)  ETV
attr interpolationmode  none
attr source  sentPacketToLowerLayer
vector 115  CAIN.eNodeB.nic.phy  averageCqiUlvect:vector  ETV
attr source  averageCqiUlvect
attr title  "Average Cqi reported in UL, vector"
attr unit  cqi
vector 1717  CAIN.ueD2DTx[15].tcp  tcpRcvQueueBytes  ETV
vector 1704  CAIN.ueD2DTx[15].tcp  "advertised window"  ETV
vector 1703  CAIN.ueD2DTx[15].tcp  "receive window"  ETV
vector 1706  CAIN.ueD2DTx[15].tcp  "sent ack"  ETV
vector 685  CAIN.ueD2DTx[15].nic.pdcpRrc  receivedPacketFromUpperLayer:vector(packetBytes)  ETV
attr interpolationmode  none
attr source  receivedPacketFromUpperLayer
vector 688  CAIN.ueD2DTx[15].nic.pdcpRrc  sentPacketToLowerLayer:vector(packetBytes)  ETV
attr interpolationmode  none
attr source  sentPacketToLowerLayer
vector 689  CAIN.ueD2DTx[15].nic.mac  receivedPacketFromUpperLayer:vector(packetBytes)  ETV
attr interpolationmode  none
attr source  receivedPacketFromUpperLayer
vector 242  CAIN.ueD2DTx[1].nic.mac  receivedPacketFromLowerLayer:vector(packetBytes)  ETV
attr interpolationmode  none
attr source  receivedPacketFromLowerLayer
vector 109  CAIN.eNodeB.nic.mac  ServedHopDevs:vector  ETV
attr interpolationmode  none
attr title  "# of devices served on hop forwarding, vector"
vector 108  CAIN.eNodeB.nic.mac  ServedDevs:vector  ETV
attr interpolationmode  none
attr title  "# of devices served on cain forwarding, vector"
vector 347  CAIN.ueD2DTx[4].nic.mac  CainHopMessageSent:vector  ETV
attr interpolationmode  none
attr title  "# of Sent CAIN hop message, vector"
vector 274  CAIN.ueD2DTx[2].nic.mac  receivedPacketFromLowerLayer:vector(packetBytes)  ETV
attr interpolationmode  none
attr source  receivedPacketFromLowerLayer
vector 276  CAIN.ueD2DTx[2].nic.mac  sentPacketToLowerLayer:vector(packetBytes)  ETV
attr interpolationmode  none
attr source  sentPacketToLowerLayer
vector 1741  CAIN.ueD2DTx[2].tcp  tcpRcvQueueBytes  ETV
vector 1728  CAIN.ueD2DTx[2].tcp  "advertised window"  ETV
vector 1727  CAIN.ueD2DTx[2].tcp  "receive window"  ETV
vector 1730  CAIN.ueD2DTx[2].tcp  "sent ack"  ETV
vector 269  CAIN.ueD2DTx[2].nic.pdcpRrc  receivedPacketFromUpperLayer:vector(packetBytes)  ETV
attr interpolationmode  none
attr source  receivedPacketFromUpperLayer
vector 272  CAIN.ueD2DTx[2].nic.pdcpRrc  sentPacketToLowerLayer:vector(packetBytes)  ETV
attr interpolationmode  none
attr source  sentPacketToLowerLayer
vector 273  CAIN.ueD2DTx[2].nic.mac  receivedPacketFromUpperLayer:vector(packetBytes)  ETV
attr interpolationmode  none
attr source  receivedPacketFromUpperLayer
vector 1765  CAIN.ueD2DTx[19].tcp  tcpRcvQueueBytes  ETV
vector 1752  CAIN.ueD2DTx[19].tcp  "advertised window"  ETV
vector 1751  CAIN.ueD2DTx[19].tcp  "receive window"  ETV
vector 1754  CAIN.ueD2DTx[19].tcp  "sent ack"  ETV
vector 813  CAIN.ueD2DTx[19].nic.pdcpRrc  receivedPacketFromUpperLayer:vector(packetBytes)  ETV
attr interpolationmode  none
attr source  receivedPacketFromUpperLayer
vector 816  CAIN.ueD2DTx[19].nic.pdcpRrc  sentPacketToLowerLayer:vector(packetBytes)  ETV
attr interpolationmode  none
attr source  sentPacketToLowerLayer
vector 817  CAIN.ueD2DTx[19].nic.mac  receivedPacketFromUpperLayer:vector(packetBytes)  ETV
attr interpolationmode  none
attr source  receivedPacketFromUpperLayer
vector 282  CAIN.ueD2DTx[2].nic.mac  CainMessageSent:vector  ETV
attr interpolationmode  none
attr title  "# of Sent CAIN message, vector"
vector 827  CAIN.ueD2DTx[19].nic.mac  CainHopMessageSent:vector  ETV
attr interpolationmode  none
attr title  "# of Sent CAIN hop message, vector"
vector 820  CAIN.ueD2DTx[19].nic.mac  sentPacketToLowerLayer:vector(packetBytes)  ETV
attr interpolationmode  none
attr source  sentPacketToLowerLayer
vector 530  CAIN.ueD2DTx[10].nic.mac  receivedPacketFromLowerLayer:vector(packetBytes)  ETV
attr interpolationmode  none
attr source  receivedPacketFromLowerLayer
vector 603  CAIN.ueD2DTx[12].nic.mac  CainHopMessageSent:vector  ETV
attr interpolationmode  none
attr title  "# of Sent CAIN hop message, vector"
vector 1789  CAIN.ueD2DTx[3].tcp  tcpRcvQueueBytes  ETV
vector 1776  CAIN.ueD2DTx[3].tcp  "advertised window"  ETV
vector 1775  CAIN.ueD2DTx[3].tcp  "receive window"  ETV
vector 1778  CAIN.ueD2DTx[3].tcp  "sent ack"  ETV
vector 301  CAIN.ueD2DTx[3].nic.pdcpRrc  receivedPacketFromUpperLayer:vector(packetBytes)  ETV
attr interpolationmode  none
attr source  receivedPacketFromUpperLayer
vector 304  CAIN.ueD2DTx[3].nic.pdcpRrc  sentPacketToLowerLayer:vector(packetBytes)  ETV
attr interpolationmode  none
attr source  sentPacketToLowerLayer
vector 305  CAIN.ueD2DTx[3].nic.mac  receivedPacketFromUpperLayer:vector(packetBytes)  ETV
attr interpolationmode  none
attr source  receivedPacketFromUpperLayer
vector 210  CAIN.ueD2DTx[0].nic.mac  receivedPacketFromLowerLayer:vector(packetBytes)  ETV
attr interpolationmode  none
attr source  receivedPacketFromLowerLayer
vector 434  CAIN.ueD2DTx[7].nic.mac  receivedPacketFromLowerLayer:vector(packetBytes)  ETV
attr interpolationmode  none
attr source  receivedPacketFromLowerLayer
vector 173  CAIN.eNodeB1.nic.phy  averageCqiUlvect:vector  ETV
attr source  averageCqiUlvect
attr title  "Average Cqi reported in UL, vector"
attr unit  cqi
vector 475  CAIN.ueD2DTx[8].nic.mac  CainHopMessageSent:vector  ETV
attr interpolationmode  none
attr title  "# of Sent CAIN hop message, vector"
vector 498  CAIN.ueD2DTx[9].nic.mac  receivedPacketFromLowerLayer:vector(packetBytes)  ETV
attr interpolationmode  none
attr source  receivedPacketFromLowerLayer
vector 218  CAIN.ueD2DTx[0].nic.mac  CainMessageSent:vector  ETV
attr interpolationmode  none
attr title  "# of Sent CAIN message, vector"
vector 722  CAIN.ueD2DTx[16].nic.mac  receivedPacketFromLowerLayer:vector(packetBytes)  ETV
attr interpolationmode  none
attr source  receivedPacketFromLowerLayer
vector 442  CAIN.ueD2DTx[7].nic.mac  CainMessageSent:vector  ETV
attr interpolationmode  none
attr title  "# of Sent CAIN message, vector"
vector 730  CAIN.ueD2DTx[16].nic.mac  CainMessageSent:vector  ETV
attr interpolationmode  none
attr title  "# of Sent CAIN message, vector"
vector 571  CAIN.ueD2DTx[11].nic.mac  CainHopMessageSent:vector  ETV
attr interpolationmode  none
attr title  "# of Sent CAIN hop message, vector"
vector 564  CAIN.ueD2DTx[11].nic.mac  sentPacketToLowerLayer:vector(packetBytes)  ETV
attr interpolationmode  none
attr source  sentPacketToLowerLayer
vector 306  CAIN.ueD2DTx[3].nic.mac  receivedPacketFromLowerLayer:vector(packetBytes)  ETV
attr interpolationmode  none
attr source  receivedPacketFromLowerLayer
vector 308  CAIN.ueD2DTx[3].nic.mac  sentPacketToLowerLayer:vector(packetBytes)  ETV
attr interpolationmode  none
attr source  sentPacketToLowerLayer
vector 250  CAIN.ueD2DTx[1].nic.mac  CainMessageSent:vector  ETV
attr interpolationmode  none
attr title  "# of Sent CAIN message, vector"
vector 410  CAIN.ueD2DTx[6].nic.mac  CainMessageSent:vector  ETV
attr interpolationmode  none
attr title  "# of Sent CAIN message, vector"
vector 283  CAIN.ueD2DTx[2].nic.mac  CainHopMessageSent:vector  ETV
attr interpolationmode  none
attr title  "# of Sent CAIN hop message, vector"
vector 314  CAIN.ueD2DTx[3].nic.mac  CainMessageSent:vector  ETV
attr interpolationmode  none
attr title  "# of Sent CAIN message, vector"
vector 411  CAIN.ueD2DTx[6].nic.mac  CainHopMessageSent:vector  ETV
attr interpolationmode  none
attr title  "# of Sent CAIN hop message, vector"
vector 251  CAIN.ueD2DTx[1].nic.mac  CainHopMessageSent:vector  ETV
attr interpolationmode  none
attr title  "# of Sent CAIN hop message, vector"
1108	150	0.0000001228	0
1219	235	0.0000006304	65535
1220	235	0.0000006304	8940
1221	235	0.0000006304	0.3725
1217	235	0.0000006304	3
1224	235	0.0000006304	1
1236	163	0.0000003096	0
1192	235	0.0000006304	65535
1193	235	0.0000006304	8940
1194	235	0.0000006304	0.3725
1190	235	0.0000006304	3
1197	235	0.0000006304	1
1209	163	0.0000003096	0
910	235	0.0000006304	65535
911	235	0.0000006304	8940
912	235	0.0000006304	0.3725
908	235	0.0000006304	3
908	302	0.0000008564	1
909	302	0.0000008564	2.26e-07
914	3454	0.0570000972	2000
914	3473	0.0570004804	2001
914	3473	0.0570004804	2002
914	3473	0.0570004804	2003
914	3473	0.0570004804	2004
914	3473	0.0570004804	2005
914	3473	0.0570004804	2006
914	3473	0.0570004804	2007
914	3473	0.0570004804	2008
914	3473	0.0570004804	2009
914	3473	0.0570004804	2010
914	3473	0.0570004804	2011
914	3473	0.0570004804	2012
914	3473	0.0570004804	2013
914	15259	0.2570024476	2014
914	15259	0.2570024476	2015
914	15259	0.2570024476	2016
914	15259	0.2570024476	2017
914	15259	0.2570024476	2018
914	15259	0.2570024476	2019
914	15259	0.2570024476	2020
914	15259	0.2570024476	2021
914	15259	0.2570024476	2022
914	15259	0.2570024476	2023
914	15259	0.2570024476	2024
914	15259	0.2570024476	2025
914	15259	0.2570024476	2026
914	15259	0.2570024476	2027
914	15259	0.2570024476	2028
914	15259	0.2570024476	2029
914	15259	0.2570024476	2030
914	15259	0.2570024476	2031
914	15259	0.2570024476	2032
914	15259	0.2570024476	2033
914	15259	0.2570024476	2034
914	15259	0.2570024476	2035
914	15259	0.2570024476	2036
914	15259	0.2570024476	2037
914	15259	0.2570024476	2038
914	15259	0.2570024476	2039
914	15259	0.2570024476	2040
914	15259	0.2570024476	2041
914	15259	0.2570024476	2042
914	15259	0.2570024476	2043
914	15259	0.2570024476	2044
914	15259	0.2570024476	2045
914	15259	0.2570024476	2046
914	15259	0.2570024476	2047
914	15259	0.2570024476	2048
914	15259	0.2570024476	2049
914	15259	0.2570024476	2050
914	15259	0.2570024476	2051
914	15259	0.2570024476	2052
914	15259	0.2570024476	2053
914	15259	0.2570024476	2054
914	15259	0.2570024476	2055
914	15259	0.2570024476	2056
914	15259	0.2570024476	2057
914	15259	0.2570024476	2058
914	15259	0.2570024476	2059
914	15259	0.2570024476	2060
914	15259	0.2570024476	2061
914	15259	0.2570024476	2062
914	15259	0.2570024476	2063
914	15259	0.2570024476	2064
914	15259	0.2570024476	2065
914	15259	0.2570024476	2066
914	15259	0.2570024476	2067
914	15259	0.2570024476	2068
914	15259	0.2570024476	2069
914	15259	0.2570024476	2070
914	15259	0.2570024476	2071
914	15259	0.2570024476	2072
914	15259	0.2570024476	2073
914	15259	0.2570024476	2074
914	15259	0.2570024476	2075
914	15259	0.2570024476	2076
914	15259	0.2570024476	2077
914	15259	0.2570024476	2078
914	15259	0.2570024476	2079
914	15259	0.2570024476	2080
914	15259	0.2570024476	2081
914	15259	0.2570024476	2082
914	15259	0.2570024476	2083
914	15259	0.2570024476	2084
914	15259	0.2570024476	2085
914	15259	0.2570024476	2086
914	15259	0.2570024476	2087
914	15259	0.2570024476	2088
914	15259	0.2570024476	2089
914	15259	0.2570024476	2090
914	15259	0.2570024476	2091
914	15259	0.2570024476	2092
914	15259	0.2570024476	2093
914	15259	0.2570024476	2094
914	15259	0.2570024476	2095
914	15259	0.2570024476	2096
914	15259	0.2570024476	2097
914	15259	0.2570024476	2098
914	15259	0.2570024476	2099
914	15259	0.2570024476	2100
914	15259	0.2570024476	2101
914	15259	0.2570024476	2102
914	15259	0.2570024476	2103
914	15259	0.2570024476	2104
914	15259	0.2570024476	2105
914	15259	0.2570024476	2106
914	15259	0.2570024476	2107
914	15259	0.2570024476	2108
914	15259	0.2570024476	2109
914	15259	0.2570024476	2110
914	15259	0.2570024476	2111
914	15259	0.2570024476	2112
914	15259	0.2570024476	2113
914	15259	0.2570024476	2114
914	15259	0.2570024476	2115
914	15259	0.2570024476	2116
914	15259	0.2570024476	2117
914	15259	0.2570024476	2118
914	15259	0.2570024476	2119
914	15259	0.2570024476	2120
914	15259	0.2570024476	2121
914	15259	0.2570024476	2122
914	15259	0.2570024476	2123
914	15259	0.2570024476	2124
914	15259	0.2570024476	2125
917	207	0.000000552	1
917	221	0.000000596	2
916	207	0.000000552	1
916	221	0.000000596	2
918	302	0.0000008564	1
918	308	0.0000009004	2
927	131	0	0
886	3454	0.0570000972	65533
886	15245	0.2570004804	65535
886	26770	0.4570024476	65535
890	3454	0.0570000972	2
890	3457	0.0570000972	2
890	3487	0.0570004804	26
890	3488	0.0570004804	0
890	3489	0.0570004804	0
890	3490	0.0570004804	0
890	3491	0.0570004804	0
890	3492	0.0570004804	0
890	3493	0.0570004804	0
890	3494	0.0570004804	0
890	3495	0.0570004804	0
890	3496	0.0570004804	0
890	3497	0.0570004804	0
890	3498	0.0570004804	0
890	3499	0.0570004804	0
890	15245	0.2570004804	0
890	15372	0.2570024476	224
890	15373	0.2570024476	0
890	15374	0.2570024476	0
890	15375	0.2570024476	0
890	15376	0.2570024476	0
890	15377	0.2570024476	0
890	15378	0.2570024476	0
890	15379	0.2570024476	0
890	15380	0.2570024476	0
890	15381	0.2570024476	0
890	15382	0.2570024476	0
890	15383	0.2570024476	0
890	15384	0.2570024476	0
890	15385	0.2570024476	0
890	15386	0.2570024476	0
890	15387	0.2570024476	0
890	15388	0.2570024476	0
890	15389	0.2570024476	0
890	15390	0.2570024476	0
890	15391	0.2570024476	0
890	15392	0.2570024476	0
890	15393	0.2570024476	0
890	15394	0.2570024476	0
890	15395	0.2570024476	0
890	15396	0.2570024476	0
890	15397	0.2570024476	0
890	15398	0.2570024476	0
890	15399	0.2570024476	0
890	15400	0.2570024476	0
890	15401	0.2570024476	0
890	15402	0.2570024476	0
890	15403	0.2570024476	0
890	15404	0.2570024476	0
890	15405	0.2570024476	0
890	15406	0.2570024476	0
890	15407	0.2570024476	0
890	15408	0.2570024476	0
890	15409	0.2570024476	0
890	15410	0.2570024476	0
890	15411	0.2570024476	0
890	15412	0.2570024476	0
890	15413	0.2570024476	0
890	15414	0.2570024476	0
890	15415	0.2570024476	0
890	15416	0.2570024476	0
890	15417	0.2570024476	0
890	15418	0.2570024476	0
890	15419	0.2570024476	0
890	15420	0.2570024476	0
890	15421	0.2570024476	0
890	15422	0.2570024476	0
890	15423	0.2570024476	0
890	15424	0.2570024476	0
890	15425	0.2570024476	0
890	15426	0.2570024476	0
890	15427	0.2570024476	0
890	15428	0.2570024476	0
890	15429	0.2570024476	0
890	15430	0.2570024476	0
890	15431	0.2570024476	0
890	15432	0.2570024476	0
890	15433	0.2570024476	0
890	15434	0.2570024476	0
890	15435	0.2570024476	0
890	15436	0.2570024476	0
890	15437	0.2570024476	0
890	15438	0.2570024476	0
890	15439	0.2570024476	0
890	15440	0.2570024476	0
890	15441	0.2570024476	0
890	15442	0.2570024476	0
890	15443	0.2570024476	0
890	15444	0.2570024476	0
890	15445	0.2570024476	0
890	15446	0.2570024476	0
890	15447	0.2570024476	0
890	15448	0.2570024476	0
890	15449	0.2570024476	0
890	15450	0.2570024476	0
890	15451	0.2570024476	0
890	15452	0.2570024476	0
890	15453	0.2570024476	0
890	15454	0.2570024476	0
890	15455	0.2570024476	0
890	15456	0.2570024476	0
890	15457	0.2570024476	0
890	15458	0.2570024476	0
890	15459	0.2570024476	0
890	15460	0.2570024476	0
890	15461	0.2570024476	0
890	15462	0.2570024476	0
890	15463	0.2570024476	0
890	15464	0.2570024476	0
890	15465	0.2570024476	0
890	15466	0.2570024476	0
890	15467	0.2570024476	0
890	15468	0.2570024476	0
890	15469	0.2570024476	0
890	15470	0.2570024476	0
890	15471	0.2570024476	0
890	15472	0.2570024476	0
890	15473	0.2570024476	0
890	15474	0.2570024476	0
890	15475	0.2570024476	0
890	15476	0.2570024476	0
890	15477	0.2570024476	0
890	15478	0.2570024476	0
890	15479	0.2570024476	0
890	15480	0.2570024476	0
890	15481	0.2570024476	0
890	15482	0.2570024476	0
890	15483	0.2570024476	0
890	26770	0.4570024476	0
895	3454	0.0570000972	0
895	15245	0.2570004804	0
895	26770	0.4570024476	0
896	3454	0.0570000972	0
896	15245	0.2570004804	0
896	26770	0.4570024476	0
897	3454	0.0570000972	0
897	15245	0.2570004804	0
897	26770	0.4570024476	0
898	3454	0.0570000972	0
898	15245	0.2570004804	0
898	26770	0.4570024476	0
899	3454	0.0570000972	0
899	15245	0.2570004804	0
899	26770	0.4570024476	0
900	3454	0.0570000972	0
900	15245	0.2570004804	0
900	26770	0.4570024476	0
901	3454	0.0570000972	0
901	15245	0.2570004804	0
901	26770	0.4570024476	0
902	3454	0.0570000972	16
902	15245	0.2570004804	16
902	26770	0.4570024476	16
904	163	0.0000003096	65535
906	3457	0.0570000972	9.72e-08
906	3487	0.0570004804	2.892e-07
906	3487	0.0570004804	2.892e-07
906	3487	0.0570004804	2.892e-07
906	3487	0.0570004804	2.892e-07
906	3487	0.0570004804	2.892e-07
906	3487	0.0570004804	2.892e-07
906	3487	0.0570004804	2.892e-07
906	3487	0.0570004804	2.892e-07
906	3487	0.0570004804	2.892e-07
906	3487	0.0570004804	2.892e-07
906	3487	0.0570004804	2.892e-07
906	3487	0.0570004804	2.892e-07
906	3487	0.0570004804	2.892e-07
906	15372	0.2570024476	1.8732e-06
906	15372	0.2570024476	1.8732e-06
906	15372	0.2570024476	1.8732e-06
906	15372	0.2570024476	1.8732e-06
906	15372	0.2570024476	1.8732e-06
906	15372	0.2570024476	1.8732e-06
906	15372	0.2570024476	1.8732e-06
906	15372	0.2570024476	1.8732e-06
906	15372	0.2570024476	1.8732e-06
906	15372	0.2570024476	1.8732e-06
906	15372	0.2570024476	1.8732e-06
906	15372	0.2570024476	1.8732e-06
906	15372	0.2570024476	1.8732e-06
906	15372	0.2570024476	1.8732e-06
906	15372	0.2570024476	1.8732e-06
906	15372	0.2570024476	1.8732e-06
906	15372	0.2570024476	1.8732e-06
906	15372	0.2570024476	1.8732e-06
906	15372	0.2570024476	1.8732e-06
906	15372	0.2570024476	1.8732e-06
906	15372	0.2570024476	1.8732e-06
906	15372	0.2570024476	1.8732e-06
906	15372	0.2570024476	1.8732e-06
906	15372	0.2570024476	1.8732e-06
906	15372	0.2570024476	1.8732e-06
906	15372	0.2570024476	1.8732e-06
906	15372	0.2570024476	1.8732e-06
906	15372	0.2570024476	1.8732e-06
906	15372	0.2570024476	1.8732e-06
906	15372	0.2570024476	1.8732e-06
906	15372	0.2570024476	1.8732e-06
906	15372	0.2570024476	1.8732e-06
906	15372	0.2570024476	1.8732e-06
906	15372	0.2570024476	1.8732e-06
906	15372	0.2570024476	1.8732e-06
906	15372	0.2570024476	1.8732e-06
906	15372	0.2570024476	1.8732e-06
906	15372	0.2570024476	1.8732e-06
906	15372	0.2570024476	1.8732e-06
906	15372	0.2570024476	1.8732e-06
906	15372	0.2570024476	1.8732e-06
906	15372	0.2570024476	1.8732e-06
906	15372	0.2570024476	1.8732e-06
906	15372	0.2570024476	1.8732e-06
906	15372	0.2570024476	1.8732e-06
906	15372	0.2570024476	1.8732e-06
906	15372	0.2570024476	1.8732e-06
906	15372	0.2570024476	1.8732e-06
906	15372	0.2570024476	1.8732e-06
906	15372	0.2570024476	1.8732e-06
906	15372	0.2570024476	1.8732e-06
906	15372	0.2570024476	1.8732e-06
906	15372	0.2570024476	1.8732e-06
906	15372	0.2570024476	1.8732e-06
906	15372	0.2570024476	1.8732e-06
906	15372	0.2570024476	1.8732e-06
906	15372	0.2570024476	1.8732e-06
906	15372	0.2570024476	1.8732e-06
906	15372	0.2570024476	1.8732e-06
906	15372	0.2570024476	1.8732e-06
906	15372	0.2570024476	1.8732e-06
906	15372	0.2570024476	1.8732e-06
906	15372	0.2570024476	1.8732e-06
906	15372	0.2570024476	1.8732e-06
906	15372	0.2570024476	1.8732e-06
906	15372	0.2570024476	1.8732e-06
906	15372	0.2570024476	1.8732e-06
906	15372	0.2570024476	1.8732e-06
906	15372	0.2570024476	1.8732e-06
906	15372	0.2570024476	1.8732e-06
906	15372	0.2570024476	1.8732e-06
906	15372	0.2570024476	1.8732e-06
906	15372	0.2570024476	1.8732e-06
906	15372	0.2570024476	1.8732e-06
906	15372	0.2570024476	1.8732e-06
906	15372	0.2570024476	1.8732e-06
906	15372	0.2570024476	1.8732e-06
906	15372	0.2570024476	1.8732e-06
906	15372	0.2570024476	1.8732e-06
906	15372	0.2570024476	1.8732e-06
906	15372	0.2570024476	1.8732e-06
906	15372	0.2570024476	1.8732e-06
906	15372	0.2570024476	1.8732e-06
906	15372	0.2570024476	1.8732e-06
906	15372	0.2570024476	1.8732e-06
906	15372	0.2570024476	1.8732e-06
906	15372	0.2570024476	1.8732e-06
906	15372	0.2570024476	1.8732e-06
906	15372	0.2570024476	1.8732e-06
906	15372	0.2570024476	1.8732e-06
906	15372	0.2570024476	1.8732e-06
906	15372	0.2570024476	1.8732e-06
906	15372	0.2570024476	1.8732e-06
906	15372	0.2570024476	1.8732e-06
906	15372	0.2570024476	1.8732e-06
906	15372	0.2570024476	1.8732e-06
906	15372	0.2570024476	1.8732e-06
906	15372	0.2570024476	1.8732e-06
906	15372	0.2570024476	1.8732e-06
906	15372	0.2570024476	1.8732e-06
906	15372	0.2570024476	1.8732e-06
906	15372	0.2570024476	1.8732e-06
906	15372	0.2570024476	1.8732e-06
906	15372	0.2570024476	1.8732e-06
906	15372	0.2570024476	1.8732e-06
906	15372	0.2570024476	1.8732e-06
906	15372	0.2570024476	1.8732e-06
906	15372	0.2570024476	1.8732e-06
906	15372	0.2570024476	1.8732e-06
906	15372	0.2570024476	1.8732e-06
906	15372	0.2570024476	1.8732e-06
906	15372	0.2570024476	1.8732e-06
907	131	0	0
1138	178	0.000000458	65535
1139	178	0.000000458	8940
1140	178	0.000000458	0.3725
1136	178	0.000000458	3
1143	178	0.000000458	1
1151	657	0.0070001912	0
1151	11987	0.2070005744	0
1151	24028	0.4070025416	0
1152	657	0.0070001912	0
1152	11987	0.2070005744	0
1152	24028	0.4070025416	0
1153	657	0.0070001912	0
1153	11987	0.2070005744	0
1153	24028	0.4070025416	0
1155	150	0.0000001228	0
1111	178	0.000000458	65535
1112	178	0.000000458	8940
1113	178	0.000000458	0.3725
1109	178	0.000000458	3
1116	178	0.000000458	1
1124	657	0.0070001912	0
1124	11987	0.2070005744	0
1124	24028	0.4070025416	0
1125	657	0.0070001912	0
1125	11987	0.2070005744	0
1125	24028	0.4070025416	0
1126	657	0.0070001912	0
1126	11987	0.2070005744	0
1126	24028	0.4070025416	0
1128	150	0.0000001228	0
1165	178	0.000000458	65535
1165	67757	1.2070005744	65535
1166	178	0.000000458	8940
1166	67757	1.2070005744	8940
1167	178	0.000000458	0.3725
1167	67757	1.2070005744	23.84
1163	178	0.000000458	3
1163	255	0.0000006744	1
1163	657	0.0070001912	1
1163	11987	0.2070005744	1
1163	24028	0.4070025416	1
1164	255	0.0000006744	2.164e-07
1164	657	0.0070001912	1.912e-07
1164	11987	0.2070005744	0.2000003832
1164	24028	0.4070025416	0.2000019672
1168	601	0.007	2000
1168	657	0.0070001912	2001
1168	657	0.0070001912	2002
1168	657	0.0070001912	2003
1168	657	0.0070001912	2004
1168	657	0.0070001912	2005
1168	657	0.0070001912	2006
1168	657	0.0070001912	2007
1168	657	0.0070001912	2008
1168	657	0.0070001912	2009
1168	657	0.0070001912	2010
1168	657	0.0070001912	2011
1168	657	0.0070001912	2012
1168	657	0.0070001912	2013
1168	11987	0.2070005744	2014
1168	11987	0.2070005744	2015
1168	11987	0.2070005744	2016
1168	11987	0.2070005744	2017
1168	11987	0.2070005744	2018
1168	11987	0.2070005744	2019
1168	11987	0.2070005744	2020
1168	11987	0.2070005744	2021
1168	11987	0.2070005744	2022
1168	11987	0.2070005744	2023
1168	11987	0.2070005744	2024
1168	11987	0.2070005744	2025
1168	11987	0.2070005744	2026
1168	11987	0.2070005744	2027
1168	11987	0.2070005744	2028
1168	11987	0.2070005744	2029
1168	11987	0.2070005744	2030
1168	11987	0.2070005744	2031
1168	11987	0.2070005744	2032
1168	11987	0.2070005744	2033
1168	11987	0.2070005744	2034
1168	11987	0.2070005744	2035
1168	11987	0.2070005744	2036
1168	11987	0.2070005744	2037
1168	11987	0.2070005744	2038
1168	11987	0.2070005744	2039
1168	11987	0.2070005744	2040
1168	11987	0.2070005744	2041
1168	11987	0.2070005744	2042
1168	11987	0.2070005744	2043
1168	11987	0.2070005744	2044
1168	11987	0.2070005744	2045
1168	11987	0.2070005744	2046
1168	11987	0.2070005744	2047
1168	11987	0.2070005744	2048
1168	11987	0.2070005744	2049
1168	11987	0.2070005744	2050
1168	11987	0.2070005744	2051
1168	11987	0.2070005744	2052
1168	11987	0.2070005744	2053
1168	11987	0.2070005744	2054
1168	11987	0.2070005744	2055
1168	11987	0.2070005744	2056
1168	11987	0.2070005744	2057
1168	11987	0.2070005744	2058
1168	11987	0.2070005744	2059
1168	11987	0.2070005744	2060
1168	11987	0.2070005744	2061
1168	11987	0.2070005744	2062
1168	11987	0.2070005744	2063
1168	11987	0.2070005744	2064
1168	11987	0.2070005744	2065
1168	11987	0.2070005744	2066
1168	11987	0.2070005744	2067
1168	11987	0.2070005744	2068
1168	11987	0.2070005744	2069
1168	11987	0.2070005744	2070
1168	11987	0.2070005744	2071
1168	11987	0.2070005744	2072
1168	11987	0.2070005744	2073
1168	11987	0.2070005744	2074
1168	11987	0.2070005744	2075
1168	11987	0.2070005744	2076
1168	11987	0.2070005744	2077
1168	11987	0.2070005744	2078
1168	11987	0.2070005744	2079
1168	11987	0.2070005744	2080
1168	11987	0.2070005744	2081
1168	11987	0.2070005744	2082
1168	11987	0.2070005744	2083
1168	11987	0.2070005744	2084
1168	11987	0.2070005744	2085
1168	11987	0.2070005744	2086
1168	11987	0.2070005744	2087
1168	11987	0.2070005744	2088
1168	11987	0.2070005744	2089
1168	11987	0.2070005744	2090
1168	11987	0.2070005744	2091
1168	11987	0.2070005744	2092
1168	11987	0.2070005744	2093
1168	11987	0.2070005744	2094
1168	11987	0.2070005744	2095
1168	11987	0.2070005744	2096
1168	11987	0.2070005744	2097
1168	11987	0.2070005744	2098
1168	11987	0.2070005744	2099
1168	11987	0.2070005744	2100
1168	11987	0.2070005744	2101
1168	11987	0.2070005744	2102
1168	11987	0.2070005744	2103
1168	11987	0.2070005744	2104
1168	11987	0.2070005744	2105
1168	11987	0.2070005744	2106
1168	11987	0.2070005744	2107
1168	11987	0.2070005744	2108
1168	11987	0.2070005744	2109
1168	11987	0.2070005744	2110
1168	11987	0.2070005744	2111
1168	11987	0.2070005744	2112
1168	11987	0.2070005744	2113
1168	11987	0.2070005744	2114
1168	11987	0.2070005744	2115
1168	11987	0.2070005744	2116
1168	11987	0.2070005744	2117
1168	11987	0.2070005744	2118
1168	11987	0.2070005744	2119
1168	11987	0.2070005744	2120
1168	11987	0.2070005744	2121
1168	11987	0.2070005744	2122
1168	11987	0.2070005744	2123
1168	11987	0.2070005744	2124
1168	11987	0.2070005744	2125
1172	273	0.0000007624	1
1172	287	0.0000008064	2
1171	273	0.0000007624	1
1171	287	0.0000008064	2
1173	255	0.0000006744	1
1173	265	0.0000007184	2
1174	601	0.007	2
1174	657	0.0070001912	0
1174	657	0.0070001912	2
1174	657	0.0070001912	4
1174	657	0.0070001912	6
1174	657	0.0070001912	8
1174	657	0.0070001912	10
1174	657	0.0070001912	12
1174	657	0.0070001912	14
1174	657	0.0070001912	16
1174	657	0.0070001912	18
1174	657	0.0070001912	20
1174	657	0.0070001912	22
1174	657	0.0070001912	24
1174	657	0.0070001912	26
1174	11987	0.2070005744	24
1174	11987	0.2070005744	22
1174	11987	0.2070005744	20
1174	11987	0.2070005744	18
1174	11987	0.2070005744	16
1174	11987	0.2070005744	14
1174	11987	0.2070005744	12
1174	11987	0.2070005744	10
1174	11987	0.2070005744	8
1174	11987	0.2070005744	6
1174	11987	0.2070005744	4
1174	11987	0.2070005744	2
1174	11987	0.2070005744	0
1174	11987	0.2070005744	2
1174	11987	0.2070005744	4
1174	11987	0.2070005744	6
1174	11987	0.2070005744	8
1174	11987	0.2070005744	10
1174	11987	0.2070005744	12
1174	11987	0.2070005744	14
1174	11987	0.2070005744	16
1174	11987	0.2070005744	18
1174	11987	0.2070005744	20
1174	11987	0.2070005744	22
1174	11987	0.2070005744	24
1174	11987	0.2070005744	26
1174	11987	0.2070005744	28
1174	11987	0.2070005744	30
1174	11987	0.2070005744	32
1174	11987	0.2070005744	34
1174	11987	0.2070005744	36
1174	11987	0.2070005744	38
1174	11987	0.2070005744	40
1174	11987	0.2070005744	42
1174	11987	0.2070005744	44
1174	11987	0.2070005744	46
1174	11987	0.2070005744	48
1174	11987	0.2070005744	50
1174	11987	0.2070005744	52
1174	11987	0.2070005744	54
1174	11987	0.2070005744	56
1174	11987	0.2070005744	58
1174	11987	0.2070005744	60
1174	11987	0.2070005744	62
1174	11987	0.2070005744	64
1174	11987	0.2070005744	66
1174	11987	0.2070005744	68
1174	11987	0.2070005744	70
1174	11987	0.2070005744	72
1174	11987	0.2070005744	74
1174	11987	0.2070005744	76
1174	11987	0.2070005744	78
1174	11987	0.2070005744	80
1174	11987	0.2070005744	82
1174	11987	0.2070005744	84
1174	11987	0.2070005744	86
1174	11987	0.2070005744	88
1174	11987	0.2070005744	90
1174	11987	0.2070005744	92
1174	11987	0.2070005744	94
1174	11987	0.2070005744	96
1174	11987	0.2070005744	98
1174	11987	0.2070005744	100
1174	11987	0.2070005744	102
1174	11987	0.2070005744	104
1174	11987	0.2070005744	106
1174	11987	0.2070005744	108
1174	11987	0.2070005744	110
1174	11987	0.2070005744	112
1174	11987	0.2070005744	114
1174	11987	0.2070005744	116
1174	11987	0.2070005744	118
1174	11987	0.2070005744	120
1174	11987	0.2070005744	122
1174	11987	0.2070005744	124
1174	11987	0.2070005744	126
1174	11987	0.2070005744	128
1174	11987	0.2070005744	130
1174	11987	0.2070005744	132
1174	11987	0.2070005744	134
1174	11987	0.2070005744	136
1174	11987	0.2070005744	138
1174	11987	0.2070005744	140
1174	11987	0.2070005744	142
1174	11987	0.2070005744	144
1174	11987	0.2070005744	146
1174	11987	0.2070005744	148
1174	11987	0.2070005744	150
1174	11987	0.2070005744	152
1174	11987	0.2070005744	154
1174	11987	0.2070005744	156
1174	11987	0.2070005744	158
1174	11987	0.2070005744	160
1174	11987	0.2070005744	162
1174	11987	0.2070005744	164
1174	11987	0.2070005744	166
1174	11987	0.2070005744	168
1174	11987	0.2070005744	170
1174	11987	0.2070005744	172
1174	11987	0.2070005744	174
1174	11987	0.2070005744	176
1174	11987	0.2070005744	178
1174	11987	0.2070005744	180
1174	11987	0.2070005744	182
1174	11987	0.2070005744	184
1174	11987	0.2070005744	186
1174	11987	0.2070005744	188
1174	11987	0.2070005744	190
1174	11987	0.2070005744	192
1174	11987	0.2070005744	194
1174	11987	0.2070005744	196
1174	11987	0.2070005744	198
1174	11987	0.2070005744	200
1174	11987	0.2070005744	202
1174	11987	0.2070005744	204
1174	11987	0.2070005744	206
1174	11987	0.2070005744	208
1174	11987	0.2070005744	210
1174	11987	0.2070005744	212
1174	11987	0.2070005744	214
1174	11987	0.2070005744	216
1174	11987	0.2070005744	218
1174	11987	0.2070005744	220
1174	11987	0.2070005744	222
1174	11987	0.2070005744	224
1174	24028	0.4070025416	222
1174	24028	0.4070025416	220
1174	24028	0.4070025416	218
1174	24028	0.4070025416	216
1174	24028	0.4070025416	214
1174	24028	0.4070025416	212
1174	24028	0.4070025416	210
1174	24028	0.4070025416	208
1174	24028	0.4070025416	206
1174	24028	0.4070025416	204
1174	24028	0.4070025416	202
1174	24028	0.4070025416	200
1174	24028	0.4070025416	198
1174	24028	0.4070025416	196
1174	24028	0.4070025416	194
1174	24028	0.4070025416	192
1174	24028	0.4070025416	190
1174	24028	0.4070025416	188
1174	24028	0.4070025416	186
1174	24028	0.4070025416	184
1174	24028	0.4070025416	182
1174	24028	0.4070025416	180
1174	24028	0.4070025416	178
1174	24028	0.4070025416	176
1174	24028	0.4070025416	174
1174	24028	0.4070025416	172
1174	24028	0.4070025416	170
1174	24028	0.4070025416	168
1174	24028	0.4070025416	166
1174	24028	0.4070025416	164
1174	24028	0.4070025416	162
1174	24028	0.4070025416	160
1174	24028	0.4070025416	158
1174	24028	0.4070025416	156
1174	24028	0.4070025416	154
1174	24028	0.4070025416	152
1174	24028	0.4070025416	150
1174	24028	0.4070025416	148
1174	24028	0.4070025416	146
1174	24028	0.4070025416	144
1174	24028	0.4070025416	142
1174	24028	0.4070025416	140
1174	24028	0.4070025416	138
1174	24028	0.4070025416	136
1174	24028	0.4070025416	134
1174	24028	0.4070025416	132
1174	24028	0.4070025416	130
1174	24028	0.4070025416	128
1174	24028	0.4070025416	126
1174	24028	0.4070025416	124
1174	24028	0.4070025416	122
1174	24028	0.4070025416	120
1174	24028	0.4070025416	118
1174	24028	0.4070025416	116
1174	24028	0.4070025416	114
1174	24028	0.4070025416	112
1174	24028	0.4070025416	110
1174	24028	0.4070025416	108
1174	24028	0.4070025416	106
1174	24028	0.4070025416	104
1174	24028	0.4070025416	102
1174	24028	0.4070025416	100
1174	24028	0.4070025416	98
1174	24028	0.4070025416	96
1174	24028	0.4070025416	94
1174	24028	0.4070025416	92
1174	24028	0.4070025416	90
1174	24028	0.4070025416	88
1174	24028	0.4070025416	86
1174	24028	0.4070025416	84
1174	24028	0.4070025416	82
1174	24028	0.4070025416	80
1174	24028	0.4070025416	78
1174	24028	0.4070025416	76
1174	24028	0.4070025416	74
1174	24028	0.4070025416	72
1174	24028	0.4070025416	70
1174	24028	0.4070025416	68
1174	24028	0.4070025416	66
1174	24028	0.4070025416	64
1174	24028	0.4070025416	62
1174	24028	0.4070025416	60
1174	24028	0.4070025416	58
1174	24028	0.4070025416	56
1174	24028	0.4070025416	54
1174	24028	0.4070025416	52
1174	24028	0.4070025416	50
1174	24028	0.4070025416	48
1174	24028	0.4070025416	46
1174	24028	0.4070025416	44
1174	24028	0.4070025416	42
1174	24028	0.4070025416	40
1174	24028	0.4070025416	38
1174	24028	0.4070025416	36
1174	24028	0.4070025416	34
1174	24028	0.4070025416	32
1174	24028	0.4070025416	30
1174	24028	0.4070025416	28
1174	24028	0.4070025416	26
1174	24028	0.4070025416	24
1174	24028	0.4070025416	22
1174	24028	0.4070025416	20
1174	24028	0.4070025416	18
1174	24028	0.4070025416	16
1174	24028	0.4070025416	14
1174	24028	0.4070025416	12
1174	24028	0.4070025416	10
1174	24028	0.4070025416	8
1174	24028	0.4070025416	6
1174	24028	0.4070025416	4
1174	24028	0.4070025416	2
1174	24028	0.4070025416	0
1175	601	0.007	2
1175	657	0.0070001912	0
1175	657	0.0070001912	2
1175	657	0.0070001912	4
1175	657	0.0070001912	6
1175	657	0.0070001912	8
1175	657	0.0070001912	10
1175	657	0.0070001912	12
1175	657	0.0070001912	14
1175	657	0.0070001912	16
1175	657	0.0070001912	18
1175	657	0.0070001912	20
1175	657	0.0070001912	22
1175	657	0.0070001912	24
1175	657	0.0070001912	26
1175	11987	0.2070005744	24
1175	11987	0.2070005744	22
1175	11987	0.2070005744	20
1175	11987	0.2070005744	18
1175	11987	0.2070005744	16
1175	11987	0.2070005744	14
1175	11987	0.2070005744	12
1175	11987	0.2070005744	10
1175	11987	0.2070005744	8
1175	11987	0.2070005744	6
1175	11987	0.2070005744	4
1175	11987	0.2070005744	2
1175	11987	0.2070005744	0
1175	11987	0.2070005744	2
1175	11987	0.2070005744	4
1175	11987	0.2070005744	6
1175	11987	0.2070005744	8
1175	11987	0.2070005744	10
1175	11987	0.2070005744	12
1175	11987	0.2070005744	14
1175	11987	0.2070005744	16
1175	11987	0.2070005744	18
1175	11987	0.2070005744	20
1175	11987	0.2070005744	22
1175	11987	0.2070005744	24
1175	11987	0.2070005744	26
1175	11987	0.2070005744	28
1175	11987	0.2070005744	30
1175	11987	0.2070005744	32
1175	11987	0.2070005744	34
1175	11987	0.2070005744	36
1175	11987	0.2070005744	38
1175	11987	0.2070005744	40
1175	11987	0.2070005744	42
1175	11987	0.2070005744	44
1175	11987	0.2070005744	46
1175	11987	0.2070005744	48
1175	11987	0.2070005744	50
1175	11987	0.2070005744	52
1175	11987	0.2070005744	54
1175	11987	0.2070005744	56
1175	11987	0.2070005744	58
1175	11987	0.2070005744	60
1175	11987	0.2070005744	62
1175	11987	0.2070005744	64
1175	11987	0.2070005744	66
1175	11987	0.2070005744	68
1175	11987	0.2070005744	70
1175	11987	0.2070005744	72
1175	11987	0.2070005744	74
1175	11987	0.2070005744	76
1175	11987	0.2070005744	78
1175	11987	0.2070005744	80
1175	11987	0.2070005744	82
1175	11987	0.2070005744	84
1175	11987	0.2070005744	86
1175	11987	0.2070005744	88
1175	11987	0.2070005744	90
1175	11987	0.2070005744	92
1175	11987	0.2070005744	94
1175	11987	0.2070005744	96
1175	11987	0.2070005744	98
1175	11987	0.2070005744	100
1175	11987	0.2070005744	102
1175	11987	0.2070005744	104
1175	11987	0.2070005744	106
1175	11987	0.2070005744	108
1175	11987	0.2070005744	110
1175	11987	0.2070005744	112
1175	11987	0.2070005744	114
1175	11987	0.2070005744	116
1175	11987	0.2070005744	118
1175	11987	0.2070005744	120
1175	11987	0.2070005744	122
1175	11987	0.2070005744	124
1175	11987	0.2070005744	126
1175	11987	0.2070005744	128
1175	11987	0.2070005744	130
1175	11987	0.2070005744	132
1175	11987	0.2070005744	134
1175	11987	0.2070005744	136
1175	11987	0.2070005744	138
1175	11987	0.2070005744	140
1175	11987	0.2070005744	142
1175	11987	0.2070005744	144
1175	11987	0.2070005744	146
1175	11987	0.2070005744	148
1175	11987	0.2070005744	150
1175	11987	0.2070005744	152
1175	11987	0.2070005744	154
1175	11987	0.2070005744	156
1175	11987	0.2070005744	158
1175	11987	0.2070005744	160
1175	11987	0.2070005744	162
1175	11987	0.2070005744	164
1175	11987	0.2070005744	166
1175	11987	0.2070005744	168
1175	11987	0.2070005744	170
1175	11987	0.2070005744	172
1175	11987	0.2070005744	174
1175	11987	0.2070005744	176
1175	11987	0.2070005744	178
1175	11987	0.2070005744	180
1175	11987	0.2070005744	182
1175	11987	0.2070005744	184
1175	11987	0.2070005744	186
1175	11987	0.2070005744	188
1175	11987	0.2070005744	190
1175	11987	0.2070005744	192
1175	11987	0.2070005744	194
1175	11987	0.2070005744	196
1175	11987	0.2070005744	198
1175	11987	0.2070005744	200
1175	11987	0.2070005744	202
1175	11987	0.2070005744	204
1175	11987	0.2070005744	206
1175	11987	0.2070005744	208
1175	11987	0.2070005744	210
1175	11987	0.2070005744	212
1175	11987	0.2070005744	214
1175	11987	0.2070005744	216
1175	11987	0.2070005744	218
1175	11987	0.2070005744	220
1175	11987	0.2070005744	222
1175	11987	0.2070005744	224
1175	24028	0.4070025416	222
1175	24028	0.4070025416	220
1175	24028	0.4070025416	218
1175	24028	0.4070025416	216
1175	24028	0.4070025416	214
1175	24028	0.4070025416	212
1175	24028	0.4070025416	210
1175	24028	0.4070025416	208
1175	24028	0.4070025416	206
1175	24028	0.4070025416	204
1175	24028	0.4070025416	202
1175	24028	0.4070025416	200
1175	24028	0.4070025416	198
1175	24028	0.4070025416	196
1175	24028	0.4070025416	194
1175	24028	0.4070025416	192
1175	24028	0.4070025416	190
1175	24028	0.4070025416	188
1175	24028	0.4070025416	186
1175	24028	0.4070025416	184
1175	24028	0.4070025416	182
1175	24028	0.4070025416	180
1175	24028	0.4070025416	178
1175	24028	0.4070025416	176
1175	24028	0.4070025416	174
1175	24028	0.4070025416	172
1175	24028	0.4070025416	170
1175	24028	0.4070025416	168
1175	24028	0.4070025416	166
1175	24028	0.4070025416	164
1175	24028	0.4070025416	162
1175	24028	0.4070025416	160
1175	24028	0.4070025416	158
1175	24028	0.4070025416	156
1175	24028	0.4070025416	154
1175	24028	0.4070025416	152
1175	24028	0.4070025416	150
1175	24028	0.4070025416	148
1175	24028	0.4070025416	146
1175	24028	0.4070025416	144
1175	24028	0.4070025416	142
1175	24028	0.4070025416	140
1175	24028	0.4070025416	138
1175	24028	0.4070025416	136
1175	24028	0.4070025416	134
1175	24028	0.4070025416	132
1175	24028	0.4070025416	130
1175	24028	0.4070025416	128
1175	24028	0.4070025416	126
1175	24028	0.4070025416	124
1175	24028	0.4070025416	122
1175	24028	0.4070025416	120
1175	24028	0.4070025416	118
[...]
820	205998	3.499	0
820	206420	3.504	0
820	206818	3.509	0
820	207259	3.514	0
820	207701	3.519	0
820	208149	3.524	0
820	208574	3.529	0
820	208983	3.534	0
820	209381	3.539	0
820	209815	3.544	0
820	210254	3.549	0
820	210648	3.554	0
820	211073	3.559	0
820	211482	3.564	0
820	211880	3.569	0
820	212314	3.574	0
820	212753	3.579	0
820	213147	3.584	0
820	213572	3.589	0
820	213981	3.594	0
820	214379	3.599	0
820	214826	3.604	0
820	215272	3.609	0
820	215669	3.614	0
820	216133	3.619	0
820	216542	3.624	0
820	216940	3.629	0
820	217374	3.634	0
820	217813	3.639	0
820	218207	3.644	0
820	218632	3.649	0
820	219041	3.654	0
820	219439	3.659	0
820	219873	3.664	0
820	220312	3.669	0
820	220706	3.674	0
827	5641	0.094	1
827	5991	0.099	2
827	6244	0.104	3
827	6583	0.109	4
827	6853	0.114	5
827	7123	0.119	6
827	7411	0.124	7
827	7695	0.129	8
827	7935	0.134	9
827	8218	0.139	10
827	8488	0.144	11
827	8758	0.149	12
827	9046	0.154	13
827	9330	0.159	14
827	9570	0.164	15
827	9853	0.169	16
827	10123	0.174	17
827	10393	0.179	18
827	10681	0.184	19
827	10965	0.189	20
827	11205	0.194	21
827	11488	0.199	22
827	11771	0.204	23
827	12616	0.209	24
827	12904	0.214	25
827	13188	0.219	26
827	13428	0.224	27
827	13711	0.229	28
827	13981	0.234	29
827	14251	0.239	30
827	14539	0.244	31
827	14823	0.249	32
827	15063	0.254	33
827	15921	0.259	34
827	16191	0.264	35
827	16461	0.269	36
827	16749	0.274	37
827	17033	0.279	38
827	17273	0.284	39
827	17556	0.289	40
827	17826	0.294	41
827	18096	0.299	42
827	18397	0.304	43
827	18681	0.309	44
827	18921	0.314	45
827	19204	0.319	46
827	19474	0.324	47
827	19744	0.329	48
827	20032	0.334	49
827	20316	0.339	50
827	20556	0.344	51
827	20839	0.349	52
827	21109	0.354	53
827	21379	0.359	54
827	21667	0.364	55
827	21951	0.369	56
827	22191	0.374	57
827	22474	0.379	58
827	22744	0.384	59
827	23014	0.389	60
827	23302	0.394	61
827	23586	0.399	62
827	23839	0.404	63
827	24130	0.409	64
827	24400	0.414	65
827	24670	0.419	66
827	24958	0.424	67
827	25242	0.429	68
827	25482	0.434	69
827	25765	0.439	70
827	26035	0.444	71
827	26305	0.449	72
827	26593	0.454	73
827	26885	0.459	74
827	27125	0.464	75
827	27408	0.469	76
827	27678	0.474	77
827	27948	0.479	78
827	28236	0.484	79
827	28520	0.489	80
827	28760	0.494	81
827	29043	0.499	82
827	29326	0.504	83
827	29596	0.509	84
827	29884	0.514	85
827	30168	0.519	86
827	30408	0.524	87
827	30691	0.529	88
827	30961	0.534	89
827	31231	0.539	90
827	31519	0.544	91
827	31803	0.549	92
827	32043	0.554	93
827	32326	0.559	94
827	32596	0.564	95
827	32866	0.569	96
827	33154	0.574	97
827	33438	0.579	98
827	33678	0.584	99
827	33961	0.589	100
827	34231	0.594	101
827	34501	0.599	102
827	34802	0.604	103
827	35086	0.609	104
827	35326	0.614	105
827	35609	0.619	106
827	35879	0.624	107
827	36149	0.629	108
827	36437	0.634	109
827	36721	0.639	110
827	36961	0.644	111
827	37244	0.649	112
827	37514	0.654	113
827	37784	0.659	114
827	38072	0.664	115
827	38356	0.669	116
827	38596	0.674	117
827	38879	0.679	118
827	39149	0.684	119
827	39419	0.689	120
827	39707	0.694	121
827	39991	0.699	122
827	40244	0.704	123
827	40527	0.709	124
827	40797	0.714	125
827	41067	0.719	126
827	41355	0.724	127
827	41639	0.729	128
827	41879	0.734	129
827	42162	0.739	130
827	42432	0.744	131
827	42702	0.749	132
827	42990	0.754	133
827	43274	0.759	134
827	43514	0.764	135
827	43797	0.769	136
827	44067	0.774	137
827	44337	0.779	138
827	44625	0.784	139
827	44909	0.789	140
827	45149	0.794	141
827	45432	0.799	142
827	45715	0.804	143
827	45985	0.809	144
827	46273	0.814	145
827	46557	0.819	146
827	46797	0.824	147
827	47080	0.829	148
827	47350	0.834	149
827	47620	0.839	150
827	47908	0.844	151
827	48192	0.849	152
827	48432	0.854	153
827	48715	0.859	154
827	48985	0.864	155
827	49255	0.869	156
827	49543	0.874	157
827	49827	0.879	158
827	50067	0.884	159
827	50350	0.889	160
827	50620	0.894	161
827	50890	0.899	162
827	51191	0.904	163
827	51475	0.909	164
827	51715	0.914	165
827	51998	0.919	166
827	52268	0.924	167
827	52538	0.929	168
827	52826	0.934	169
827	53110	0.939	170
827	53350	0.944	171
827	53633	0.949	172
827	53903	0.954	173
827	54173	0.959	174
827	54461	0.964	175
827	54745	0.969	176
827	54985	0.974	177
827	55268	0.979	178
827	55538	0.984	179
827	55808	0.989	180
827	56096	0.994	181
827	56380	0.999	182
827	56633	1.004	183
827	56916	1.009	184
827	57186	1.014	185
827	57456	1.019	186
827	57744	1.024	187
827	58028	1.029	188
827	58268	1.034	189
827	58551	1.039	190
827	58821	1.044	191
827	59091	1.049	192
827	59379	1.054	193
827	59663	1.059	194
827	59903	1.064	195
827	60186	1.069	196
827	60456	1.074	197
827	60726	1.079	198
827	61014	1.084	199
827	61298	1.089	200
827	61538	1.094	201
827	61821	1.099	202
827	62104	1.104	203
827	62374	1.109	204
827	62662	1.114	205
827	62946	1.119	206
827	63186	1.124	207
827	63469	1.129	208
827	63739	1.134	209
827	64009	1.139	210
827	64297	1.144	211
827	64581	1.149	212
827	64821	1.154	213
827	65104	1.159	214
827	65374	1.164	215
827	65644	1.169	216
827	65932	1.174	217
827	66216	1.179	218
827	66456	1.184	219
827	66739	1.189	220
827	67009	1.194	221
827	67279	1.199	222
827	67580	1.204	223
827	67865	1.209	224
827	68105	1.214	225
827	68388	1.219	226
827	68658	1.224	227
827	68928	1.229	228
827	69216	1.234	229
827	69500	1.239	230
827	69740	1.244	231
827	70023	1.249	232
827	70293	1.254	233
827	70564	1.259	234
827	70852	1.264	235
827	71136	1.269	236
827	71376	1.274	237
827	71659	1.279	238
827	71929	1.284	239
827	72199	1.289	240
827	72487	1.294	241
827	72771	1.299	242
827	73024	1.304	243
827	73307	1.309	244
827	73577	1.314	245
827	73847	1.319	246
827	74135	1.324	247
827	74419	1.329	248
827	74659	1.334	249
827	74942	1.339	250
827	75212	1.344	251
827	75482	1.349	252
827	75770	1.354	253
827	76054	1.359	254
827	76294	1.364	255
827	76577	1.369	256
827	76847	1.374	257
827	77117	1.379	258
827	77405	1.384	259
827	77689	1.389	260
827	77929	1.394	261
827	78212	1.399	262
827	78495	1.404	263
827	78765	1.409	264
827	79053	1.414	265
827	79337	1.419	266
827	79577	1.424	267
827	79860	1.429	268
827	80130	1.434	269
827	80400	1.439	270
827	80688	1.444	271
827	80972	1.449	272
827	81212	1.454	273
827	81495	1.459	274
827	81765	1.464	275
827	82035	1.469	276
827	82323	1.474	277
827	82607	1.479	278
827	82847	1.484	279
827	83130	1.489	280
827	83400	1.494	281
827	83670	1.499	282
827	83971	1.504	283
827	84255	1.509	284
827	84495	1.514	285
827	84778	1.519	286
827	85048	1.524	287
827	85318	1.529	288
827	85606	1.534	289
827	85890	1.539	290
827	86130	1.544	291
827	86413	1.549	292
827	86683	1.554	293
827	86953	1.559	294
827	87241	1.564	295
827	87525	1.569	296
827	87765	1.574	297
827	88048	1.579	298
827	88318	1.584	299
827	88588	1.589	300
827	88876	1.594	301
827	89160	1.599	302
827	89413	1.604	303
827	89696	1.609	304
827	89966	1.614	305
827	90236	1.619	306
827	90524	1.624	307
827	90808	1.629	308
827	91048	1.634	309
827	91331	1.639	310
827	91601	1.644	311
827	91871	1.649	312
827	92159	1.654	313
827	92443	1.659	314
827	92683	1.664	315
827	92966	1.669	316
827	93236	1.674	317
827	93506	1.679	318
827	93794	1.684	319
827	94078	1.689	320
827	94318	1.694	321
827	94601	1.699	322
827	94884	1.704	323
827	95154	1.709	324
827	95442	1.714	325
827	95726	1.719	326
827	95966	1.724	327
827	96249	1.729	328
827	96519	1.734	329
827	96789	1.739	330
827	97077	1.744	331
827	97361	1.749	332
827	97601	1.754	333
827	97884	1.759	334
827	98154	1.764	335
827	98424	1.769	336
827	98712	1.774	337
827	98996	1.779	338
827	99236	1.784	339
827	99519	1.789	340
827	99789	1.794	341
827	100059	1.799	342
827	100360	1.804	343
827	100644	1.809	344
827	100884	1.814	345
827	101167	1.819	346
827	101437	1.824	347
827	101707	1.829	348
827	101995	1.834	349
827	102279	1.839	350
827	102519	1.844	351
827	102802	1.849	352
827	103072	1.854	353
827	103342	1.859	354
827	103630	1.864	355
827	103914	1.869	356
827	104154	1.874	357
827	104437	1.879	358
827	104707	1.884	359
827	104977	1.889	360
827	105265	1.894	361
827	105549	1.899	362
827	105802	1.904	363
827	106085	1.909	364
827	106355	1.914	365
827	106625	1.919	366
827	106913	1.924	367
827	107197	1.929	368
827	107437	1.934	369
827	107720	1.939	370
827	107990	1.944	371
827	108260	1.949	372
827	108548	1.954	373
827	108832	1.959	374
827	109072	1.964	375
827	109355	1.969	376
827	109625	1.974	377
827	109895	1.979	378
827	110183	1.984	379
827	110467	1.989	380
827	110707	1.994	381
827	110990	1.999	382
827	111273	2.004	383
827	111543	2.009	384
827	111831	2.014	385
827	112115	2.019	386
827	112355	2.024	387
827	112638	2.029	388
827	112908	2.034	389
827	113178	2.039	390
827	113466	2.044	391
827	113750	2.049	392
827	113990	2.054	393
827	114273	2.059	394
827	114543	2.064	395
827	114813	2.069	396
827	115101	2.074	397
827	115385	2.079	398
827	115625	2.084	399
827	115908	2.089	400
827	116178	2.094	401
827	116448	2.099	402
827	116749	2.104	403
827	117033	2.109	404
827	117273	2.114	405
827	117556	2.119	406
827	117826	2.124	407
827	118096	2.129	408
827	118384	2.134	409
827	118668	2.139	410
827	118908	2.144	411
827	119191	2.149	412
827	119461	2.154	413
827	119731	2.159	414
827	120019	2.164	415
827	120303	2.169	416
827	120543	2.174	417
827	120826	2.179	418
827	121096	2.184	419
827	121366	2.189	420
827	121654	2.194	421
827	121938	2.199	422
827	122191	2.204	423
827	122474	2.209	424
827	122744	2.214	425
827	123014	2.219	426
827	123302	2.224	427
827	123586	2.229	428
827	123826	2.234	429
827	124109	2.239	430
827	124379	2.244	431
827	124649	2.249	432
827	124937	2.254	433
827	125221	2.259	434
827	125461	2.264	435
827	125744	2.269	436
827	126014	2.274	437
827	126284	2.279	438
827	126572	2.284	439
827	126856	2.289	440
827	127096	2.294	441
827	127379	2.299	442
827	127662	2.304	443
827	127932	2.309	444
827	128220	2.314	445
827	128504	2.319	446
827	128744	2.324	447
827	129027	2.329	448
827	129297	2.334	449
827	129567	2.339	450
827	129855	2.344	451
827	130139	2.349	452
827	130379	2.354	453
827	130662	2.359	454
827	130932	2.364	455
827	131202	2.369	456
827	131490	2.374	457
827	131774	2.379	458
827	132014	2.384	459
827	132297	2.389	460
827	132567	2.394	461
827	132837	2.399	462
827	133138	2.404	463
827	133422	2.409	464
827	133662	2.414	465
827	133945	2.419	466
827	134215	2.424	467
827	134485	2.429	468
827	134773	2.434	469
827	135057	2.439	470
827	135297	2.444	471
827	135580	2.449	472
827	135850	2.454	473
827	136120	2.459	474
827	136408	2.464	475
827	136692	2.469	476
827	136932	2.474	477
827	137215	2.479	478
827	137485	2.484	479
827	137755	2.489	480
827	138043	2.494	481
827	138327	2.499	482
827	138580	2.504	483
827	138863	2.509	484
827	139133	2.514	485
827	139403	2.519	486
827	139691	2.524	487
827	139975	2.529	488
827	140215	2.534	489
827	140498	2.539	490
827	140768	2.544	491
827	141038	2.549	492
827	141326	2.554	493
827	141610	2.559	494
827	141850	2.564	495
827	142133	2.569	496
827	142403	2.574	497
827	142673	2.579	498
827	142961	2.584	499
827	143245	2.589	500
827	143485	2.594	501
827	143768	2.599	502
827	144051	2.604	503
827	144321	2.609	504
827	144609	2.614	505
827	144893	2.619	506
827	145133	2.624	507
827	145416	2.629	508
827	145686	2.634	509
827	145956	2.639	510
827	146244	2.644	511
827	146528	2.649	512
827	146768	2.654	513
827	147051	2.659	514
827	147321	2.664	515
827	147591	2.669	516
827	147879	2.674	517
827	148163	2.679	518
827	148403	2.684	519
827	148686	2.689	520
827	148956	2.694	521
827	149226	2.699	522
827	149527	2.704	523
827	149811	2.709	524
827	150051	2.714	525
827	150334	2.719	526
827	150604	2.724	527
827	150874	2.729	528
827	151162	2.734	529
827	151446	2.739	530
827	151686	2.744	531
827	151969	2.749	532
827	152239	2.754	533
827	152509	2.759	534
827	152797	2.764	535
827	153081	2.769	536
827	153321	2.774	537
827	153604	2.779	538
827	153874	2.784	539
827	154144	2.789	540
827	154432	2.794	541
827	154716	2.799	542
827	154969	2.804	543
827	155252	2.809	544
827	155522	2.814	545
827	155792	2.819	546
827	156080	2.824	547
827	156364	2.829	548
827	156604	2.834	549
827	156887	2.839	550
827	157157	2.844	551
827	157427	2.849	552
827	157715	2.854	553
827	157999	2.859	554
827	158239	2.864	555
827	158522	2.869	556
827	158792	2.874	557
827	159062	2.879	558
827	159350	2.884	559
827	159634	2.889	560
827	159874	2.894	561
827	160157	2.899	562
827	160440	2.904	563
827	160710	2.909	564
827	160998	2.914	565
827	161282	2.919	566
827	161522	2.924	567
827	161805	2.929	568
827	162075	2.934	569
827	162345	2.939	570
827	162633	2.944	571
827	162917	2.949	572
827	163157	2.954	573
827	163440	2.959	574
827	163710	2.964	575
827	163980	2.969	576
827	164268	2.974	577
827	164552	2.979	578
827	164792	2.984	579
827	165075	2.989	580
827	165345	2.994	581
827	165615	2.999	582
827	165916	3.004	583
827	166200	3.009	584
827	166448	3.014	585
827	166739	3.019	586
827	167036	3.024	587
827	167319	3.029	588
827	167671	3.034	589
827	168015	3.039	590
827	168324	3.044	591
827	168678	3.049	592
827	169020	3.054	593
827	169356	3.059	594
827	169750	3.064	595
827	170133	3.069	596
827	170472	3.074	597
827	170862	3.079	598
827	171242	3.084	599
827	171616	3.089	600
827	172048	3.094	601
827	172476	3.099	602
827	172875	3.104	603
827	173313	3.109	604
827	173746	3.114	605
827	174147	3.119	606
827	174581	3.124	607
827	175020	3.129	608
827	175414	3.134	609
827	175839	3.139	610
827	176248	3.144	611
827	176646	3.149	612
827	177080	3.154	613
827	177519	3.159	614
827	177913	3.164	615
827	178338	3.169	616
827	178747	3.174	617
827	179145	3.179	618
827	179579	3.184	619
827	180018	3.189	620
827	180412	3.194	621
827	180837	3.199	622
827	181259	3.204	623
827	181657	3.209	624
827	182098	3.214	625
827	182540	3.219	626
827	182988	3.224	627
827	183413	3.229	628
827	183822	3.234	629
827	184220	3.239	630
827	184654	3.244	631
827	185093	3.249	632
827	185487	3.254	633
827	185912	3.259	634
827	186321	3.264	635
827	186719	3.269	636
827	187153	3.274	637
827	187592	3.279	638
827	187986	3.284	639
827	188411	3.289	640
827	188820	3.294	641
827	189218	3.299	642
827	189665	3.304	643
827	190111	3.309	644
827	190508	3.314	645
827	190972	3.319	646
827	191381	3.324	647
827	191779	3.329	648
827	192213	3.334	649
827	192652	3.339	650
827	193046	3.344	651
827	193471	3.349	652
827	193880	3.354	653
827	194278	3.359	654
827	194712	3.364	655
827	195151	3.369	656
827	195545	3.374	657
827	195970	3.379	658
827	196379	3.384	659
827	196777	3.389	660
827	197211	3.394	661
827	197650	3.399	662
827	198057	3.404	663
827	198489	3.409	664
827	198917	3.414	665
827	199313	3.419	666
827	199742	3.424	667
827	200181	3.429	668
827	200575	3.434	669
827	201000	3.439	670
827	201409	3.444	671
827	201807	3.449	672
827	202241	3.454	673
827	202680	3.459	674
827	203074	3.464	675
827	203499	3.469	676
827	203908	3.474	677
827	204306	3.479	678
827	204740	3.484	679
827	205179	3.489	680
827	205573	3.494	681
827	205998	3.499	682
827	206420	3.504	683
827	206818	3.509	684
827	207259	3.514	685
827	207701	3.519	686
827	208149	3.524	687
827	208574	3.529	688
827	208983	3.534	689
827	209381	3.539	690
827	209815	3.544	691
827	210254	3.549	692
827	210648	3.554	693
827	211073	3.559	694
827	211482	3.564	695
827	211880	3.569	696
827	212314	3.574	697
827	212753	3.579	698
827	213147	3.584	699
827	213572	3.589	700
827	213981	3.594	701
827	214379	3.599	702
827	214826	3.604	703
827	215272	3.609	704
827	215669	3.614	705
827	216133	3.619	706
827	216542	3.624	707
827	216940	3.629	708
827	217374	3.634	709
827	217813	3.639	710
827	218207	3.644	711
827	218632	3.649	712
827	219041	3.654	713
827	219439	3.659	714
827	219873	3.664	715
827	220312	3.669	716
827	220706	3.674	717
839	0	0	1
1319	975	0.013945144669	7504
1319	166418	3.013945144669	7504
1320	975	0.013945144669	7504
1320	166418	3.013945144669	7504
1322	975	0.013945144669	0
1322	166418	3.013945144669	0
1333	975	0.013945144669	0
1333	166418	3.013945144669	0
1343	1285	0.020429364846	7504
1343	166849	3.020429364846	7504
1344	1285	0.020429364846	7504
1344	166849	3.020429364846	7504
1346	1285	0.020429364846	0
1346	166849	3.020429364846	0
1357	1285	0.020429364846	0
1357	166849	3.020429364846	0
1367	1380	0.023409340573	7504
1367	166986	3.023409340573	7504
1368	1380	0.023409340573	7504
1368	166986	3.023409340573	7504
1370	1380	0.023409340573	0
1370	166986	3.023409340573	0
1381	1380	0.023409340573	0
1381	166986	3.023409340573	0
1391	1669	0.029577355213	7504
1391	167338	3.029577355213	7504
1392	1669	0.029577355213	7504
1392	167338	3.029577355213	7504
1394	1669	0.029577355213	0
1394	167338	3.029577355213	0
1405	1669	0.029577355213	0
1405	167338	3.029577355213	0
1415	1824	0.031389955268	7504
1415	167479	3.031389955268	7504
1416	1824	0.031389955268	7504
1416	167479	3.031389955268	7504
1418	1824	0.031389955268	0
1418	167479	3.031389955268	0
1429	1824	0.031389955268	0
1429	167479	3.031389955268	0
1439	1887	0.032763117831	7504
1439	167579	3.032763117831	7504
1440	1887	0.032763117831	7504
1440	167579	3.032763117831	7504
1442	1887	0.032763117831	0
1442	167579	3.032763117831	0
1453	1887	0.032763117831	0
1453	167579	3.032763117831	0
1463	1895	0.03277608233	7504
1463	167586	3.03277608233	7504
1464	1895	0.03277608233	7504
1464	167586	3.03277608233	7504
1466	1895	0.03277608233	0
1466	167586	3.03277608233	0
1477	1895	0.03277608233	0
1477	167586	3.03277608233	0
1487	1942	0.033984720812	7504
1487	167640	3.033984720812	7504
1488	1942	0.033984720812	7504
1488	167640	3.033984720812	7504
1490	1942	0.033984720812	0
1490	167640	3.033984720812	0
1501	1942	0.033984720812	0
1501	167640	3.033984720812	0
1511	3017	0.051714848483	7504
1511	168870	3.051714848483	7504
1512	3017	0.051714848483	7504
1512	168870	3.051714848483	7504
1514	3017	0.051714848483	0
1514	168870	3.051714848483	0
1525	3017	0.051714848483	0
1525	168870	3.051714848483	0
1535	3605	0.059049774688	7504
1535	169388	3.059049774688	7504
1536	3605	0.059049774688	7504
1536	169388	3.059049774688	7504
1538	3605	0.059049774688	0
1538	169388	3.059049774688	0
1549	3605	0.059049774688	0
1549	169388	3.059049774688	0
1559	3661	0.060278170027	7504
1559	169473	3.060278170027	7504
1560	3661	0.060278170027	7504
1560	169473	3.060278170027	7504
1562	3661	0.060278170027	0
1562	169473	3.060278170027	0
1573	3661	0.060278170027	0
1573	169473	3.060278170027	0
1583	3799	0.062601716756	7504
1583	169659	3.062601716756	7504
1584	3799	0.062601716756	7504
1584	169659	3.062601716756	7504
1586	3799	0.062601716756	0
1586	169659	3.062601716756	0
1597	3799	0.062601716756	0
1597	169659	3.062601716756	0
1607	4557	0.076266208328	7504
1607	170678	3.076266208328	7504
1608	4557	0.076266208328	7504
1608	170678	3.076266208328	7504
1610	4557	0.076266208328	0
1610	170678	3.076266208328	0
1621	4557	0.076266208328	0
1621	170678	3.076266208328	0
1631	4891	0.082919128996	7504
1631	171126	3.082919128996	7504
1632	4891	0.082919128996	7504
1632	171126	3.082919128996	7504
1634	4891	0.082919128996	0
1634	171126	3.082919128996	0
1645	4891	0.082919128996	0
1645	171126	3.082919128996	0
1655	4932	0.083256449993	7504
1655	171189	3.083256449993	7504
1656	4932	0.083256449993	7504
1656	171189	3.083256449993	7504
1658	4932	0.083256449993	0
1658	171189	3.083256449993	0
1669	4932	0.083256449993	0
1669	171189	3.083256449993	0
1679	5219	0.087465974346	7504
1679	171526	3.087465974346	7504
1680	5219	0.087465974346	7504
1680	171526	3.087465974346	7504
1682	5219	0.087465974346	0
1682	171526	3.087465974346	0
1693	5219	0.087465974346	0
1693	171526	3.087465974346	0
1703	5300	0.089455451544	7504
1703	171657	3.089455451544	7504
1704	5300	0.089455451544	7504
1704	171657	3.089455451544	7504
1706	5300	0.089455451544	0
1706	171657	3.089455451544	0
1717	5300	0.089455451544	0
1717	171657	3.089455451544	0
1727	5603	0.093058322349	7504
1727	172008	3.093058322349	7504
1728	5603	0.093058322349	7504
1728	172008	3.093058322349	7504
1730	5603	0.093058322349	0
1730	172008	3.093058322349	0
1741	5603	0.093058322349	0
1741	172008	3.093058322349	0
1751	5611	0.093147725489	7504
1751	172015	3.093147725489	7504
1752	5611	0.093147725489	7504
1752	172015	3.093147725489	7504
1754	5611	0.093147725489	0
1754	172015	3.093147725489	0
1765	5611	0.093147725489	0
1765	172015	3.093147725489	0
1775	5906	0.098821217397	7504
1775	172442	3.098821217397	7504
1776	5906	0.098821217397	7504
1776	172442	3.098821217397	7504
1778	5906	0.098821217397	0
1778	172442	3.098821217397	0
1789	5906	0.098821217397	0
1789	172442	3.098821217397	0
