file 3657531 1580829398                                         
version 2
run CAIN-224-20200204-12:15:45-11012
attr configname CAIN
attr datetime 20200204-12:15:45
attr dist 230
attr experiment CAIN
attr inifile omnetpp.ini
attr iterationvars "$dist=230, $mob=\"./movements/RWPRPGM-0.0.movements\""
attr iterationvars2 "$dist=230, $mob=\"./movements/RWPRPGM-0.0.movements\", $repetition=14"
attr measurement "$dist=230, $mob=\"./movements/RWPRPGM-0.0.movements\""
attr mob "\"./movements/RWPRPGM-0.0.movements\""
attr network lte.simulations.networks.CAIN
attr processid 11012
attr repetition 14
attr replication #14
attr resultdir results
attr runnumber 224
attr seedset 14
param **.**.amcMode "\"AUTO\""
param **.amcMode "\"D2D\""
param **.cainNetwork true
param **.channelControl.alpha 1.0
param **.channelControl.carrierFrequency 2100e+6Hz
param **.channelControl.pMax 10W
param **.d2dCqi 7
param **.deployer.numRbDl 50
param **.deployer.numRbUl 50
param **.distThresh "${dist=200..260 step 10}"
param **.fbDelay 1
param **.feedbackComputation "xmldoc(\"config_channel.xml\")"
param **.mobility.constraintAreaMaxX 1000m
param **.mobility.constraintAreaMaxY 1000m
param **.mobility.constraintAreaMaxZ 0m
param **.mobility.constraintAreaMinX 0m
param **.mobility.constraintAreaMinY 0m
param **.mobility.constraintAreaMinZ 0m
param **.nic.phy.channelModel "xmldoc(\"config_channel.xml\")"
param **.numBands 50
param **.pwrThresh -10
param **.qtdThresh 3
param **.rbAllocationType "\"localized\""
param **.routingRecorder.enabled false
param **.tcpApp[*].tClose -1s
param **.ueD2DTx[*].mobility.changeAngleBy "normal(0deg, 30deg)"
param **.ueD2DTx[*].mobility.changeInterval "normal(5s, 0.1s)"
param **.ueD2DTx[*].mobility.nodeId -1
param **.ueD2DTx[*].mobility.speed "normal(2mps, 0.01mps)"
param **.ueD2DTx[*].mobility.traceFile "${mob=\"./movements/RWPRPGM-0.0.movements\",\"./movements/RWPRPGM-0.5.movements\"}"
param **.ueD2DTx[*].mobilityType "\"BonnMotionMobility\""
param **.usePreconfiguredTxParams false
param *.eNodeB.d2dCapable false
param *.eNodeB.mobility.initFromDisplayString false
param *.eNodeB.mobility.initialX 300m
param *.eNodeB.mobility.initialY 300m
param *.eNodeB.nic.phy.enableD2DCqiReporting true
param *.eNodeB.txPower 19952.62315mw
param *.numUeCell 0
param *.numUeD2DRx 1
param *.numUeD2DTx 1
param *.ue*.macCellId 1
param *.ue*.masterId 1
param *.ue*.mobility.initFromDisplayString false
param *.ue*[0].macCellId 1
param *.ue*[0].masterId 1
param *.ue*[0].mobility.initFromDisplayString false
param *.ueD2D*.numTcpApps 1
param *.ueD2D*[*].d2dCapable true
param *.ueD2D*[0].d2dCapable false
param *.ueD2D*[0].numTcpApps 1
param *.ueD2DRx[0].mobility.initialX 310m
param *.ueD2DRx[0].mobility.initialY 350m
param *.ueD2DRx[0].tcpApp[*].localPort 1000
param *.ueD2DRx[0].tcpApp[*].typename "\"TCPSinkApp\""
param *.ueD2DTx*.tcpApp[*].connectAddress "\"ueD2DTx[0]\""
param *.ueD2DTx*.tcpApp[*].localAddress "\"ueD2DTx\""
param *.ueD2DTx*.tcpApp[*].localPort 1000
param *.ueD2DTx*.tcpApp[*].sendBytes 1GiB
param *.ueD2DTx*.tcpApp[*].typename "\"TCPSessionApp\""
param *.ueD2DTx*.tcpApp[0].active true
param *.ueD2DTx*.tcpApp[0].connectPort 1000
param *.ueD2DTx*.tcpApp[0].tOpen uniform(0.010s,0.1s)
param *.ueD2DTx*.tcpApp[0].tSend uniform(0.15s,0.5s)
param *.ueD2DTx[0].mobility.initialX 290m
param *.ueD2DTx[0].mobility.initialY 350m
param *.ueD2DTx[0].nic.d2dPeerAddresses "\"ueD2DTx[1]\""
param *.ueD2DTx[0].tcpApp[*].localPort 1000
param *.ueD2DTx[0].tcpApp[*].sendBytes 1GiB
param *.ueD2DTx[0].tcpApp[*].typename "\"TCPSessionApp\""
param *.ueD2DTx[0].tcpApp[0].active true
param *.ueD2DTx[0].tcpApp[0].connectAddress "\"ueD2DRx[0]\""
param *.ueD2DTx[0].tcpApp[0].connectPort 1000
param *.ueD2DTx[0].tcpApp[0].localAddress "\"ueD2DTx[0]\""
param *.ueD2DTx[0].tcpApp[0].tOpen uniform(0.010s,0.1s)
param *.ueD2DTx[0].tcpApp[0].tSend uniform(0.15s,0.5s)
param *.ueD2DTx[1].nic.d2dPeerAddresses "\"ueD2DTx[0]\""

vector 8  CAIN.server.ppp[0].queue  queueLength:vector  ETV
attr interpolationmode  sample-hold
attr title  "queue length, vector"
vector 9  CAIN.server.ppp[0].ppp  txState:vector  ETV
attr interpolationmode  sample-hold
attr title  "tx state, vector"
vector 24  CAIN.router.ppp[0].queue  queueLength:vector  ETV
attr interpolationmode  sample-hold
attr title  "queue length, vector"
vector 25  CAIN.router.ppp[0].ppp  txState:vector  ETV
attr interpolationmode  sample-hold
attr title  "tx state, vector"
vector 35  CAIN.router.ppp[1].queue  queueLength:vector  ETV
attr interpolationmode  sample-hold
attr title  "queue length, vector"
vector 36  CAIN.router.ppp[1].ppp  txState:vector  ETV
attr interpolationmode  sample-hold
attr title  "tx state, vector"
vector 56  CAIN.pgw.ppp[0].queue  queueLength:vector  ETV
attr interpolationmode  sample-hold
attr title  "queue length, vector"
vector 57  CAIN.pgw.ppp[0].ppp  txState:vector  ETV
attr interpolationmode  sample-hold
attr title  "tx state, vector"
vector 67  CAIN.pgw.pppInterface.queue  queueLength:vector  ETV
attr interpolationmode  sample-hold
attr title  "queue length, vector"
vector 68  CAIN.pgw.pppInterface.ppp  txState:vector  ETV
attr interpolationmode  sample-hold
attr title  "tx state, vector"
vector 104  CAIN.eNodeB.pppIf.queue  queueLength:vector  ETV
attr interpolationmode  sample-hold
attr title  "queue length, vector"
vector 105  CAIN.eNodeB.pppIf.ppp  txState:vector  ETV
attr interpolationmode  sample-hold
attr title  "tx state, vector"
vector 138  CAIN.ueD2DTx[0].nic.phy  servingCell:vector  ETV
attr source  servingCell
attr title  "ID of the serving eNodeB for the UE, vector"
attr unit  ""
vector 165  CAIN.ueD2DTx[1].nic.phy  servingCell:vector  ETV
attr source  servingCell
attr title  "ID of the serving eNodeB for the UE, vector"
attr unit  ""
vector 192  CAIN.ueD2DTx[2].nic.phy  servingCell:vector  ETV
attr source  servingCell
attr title  "ID of the serving eNodeB for the UE, vector"
attr unit  ""
vector 219  CAIN.ueD2DTx[3].nic.phy  servingCell:vector  ETV
attr source  servingCell
attr title  "ID of the serving eNodeB for the UE, vector"
attr unit  ""
vector 246  CAIN.ueD2DTx[4].nic.phy  servingCell:vector  ETV
attr source  servingCell
attr title  "ID of the serving eNodeB for the UE, vector"
attr unit  ""
vector 85  CAIN.eNodeB.nic.mac  receivedPacketFromLowerLayer:vector(packetBytes)  ETV
attr interpolationmode  none
attr source  receivedPacketFromLowerLayer
vector 264  CAIN.ueD2DTx[0].tcp  tcpRcvQueueBytes  ETV
vector 251  CAIN.ueD2DTx[0].tcp  "advertised window"  ETV
vector 250  CAIN.ueD2DTx[0].tcp  "receive window"  ETV
vector 253  CAIN.ueD2DTx[0].tcp  "sent ack"  ETV
vector 117  CAIN.ueD2DTx[0].nic.pdcpRrc  receivedPacketFromUpperLayer:vector(packetBytes)  ETV
attr interpolationmode  none
attr source  receivedPacketFromUpperLayer
vector 120  CAIN.ueD2DTx[0].nic.pdcpRrc  sentPacketToLowerLayer:vector(packetBytes)  ETV
attr interpolationmode  none
attr source  sentPacketToLowerLayer
vector 121  CAIN.ueD2DTx[0].nic.mac  receivedPacketFromUpperLayer:vector(packetBytes)  ETV
attr interpolationmode  none
attr source  receivedPacketFromUpperLayer
vector 124  CAIN.ueD2DTx[0].nic.mac  sentPacketToLowerLayer:vector(packetBytes)  ETV
attr interpolationmode  none
attr source  sentPacketToLowerLayer
vector 96  CAIN.eNodeB.nic.mac  racpkt:vector  ETV
attr interpolationmode  none
attr title  "eNB received racpkt message, vector"
vector 97  CAIN.eNodeB.nic.mac  racDistanceSignal:vector  ETV
attr interpolationmode  none
attr title  "Rac distance to enb, vector"
vector 87  CAIN.eNodeB.nic.mac  sentPacketToLowerLayer:vector(packetBytes)  ETV
attr interpolationmode  none
attr source  sentPacketToLowerLayer
vector 176  CAIN.ueD2DTx[2].nic.mac  receivedPacketFromLowerLayer:vector(packetBytes)  ETV
attr interpolationmode  none
attr source  receivedPacketFromLowerLayer
vector 187  CAIN.ueD2DTx[2].nic.mac  racpkt:vector  ETV
attr interpolationmode  none
attr title  "eNB received racpkt message, vector"
vector 188  CAIN.ueD2DTx[2].nic.mac  racDistanceSignal:vector  ETV
attr interpolationmode  none
attr title  "Rac distance to enb, vector"
vector 178  CAIN.ueD2DTx[2].nic.mac  sentPacketToLowerLayer:vector(packetBytes)  ETV
attr interpolationmode  none
attr source  sentPacketToLowerLayer
vector 122  CAIN.ueD2DTx[0].nic.mac  receivedPacketFromLowerLayer:vector(packetBytes)  ETV
attr interpolationmode  none
attr source  receivedPacketFromLowerLayer
vector 149  CAIN.ueD2DTx[1].nic.mac  receivedPacketFromLowerLayer:vector(packetBytes)  ETV
attr interpolationmode  none
attr source  receivedPacketFromLowerLayer
vector 160  CAIN.ueD2DTx[1].nic.mac  racpkt:vector  ETV
attr interpolationmode  none
attr title  "eNB received racpkt message, vector"
vector 161  CAIN.ueD2DTx[1].nic.mac  racDistanceSignal:vector  ETV
attr interpolationmode  none
attr title  "Rac distance to enb, vector"
vector 151  CAIN.ueD2DTx[1].nic.mac  sentPacketToLowerLayer:vector(packetBytes)  ETV
attr interpolationmode  none
attr source  sentPacketToLowerLayer
vector 230  CAIN.ueD2DTx[4].nic.mac  receivedPacketFromLowerLayer:vector(packetBytes)  ETV
attr interpolationmode  none
attr source  receivedPacketFromLowerLayer
vector 241  CAIN.ueD2DTx[4].nic.mac  racpkt:vector  ETV
attr interpolationmode  none
attr title  "eNB received racpkt message, vector"
vector 242  CAIN.ueD2DTx[4].nic.mac  racDistanceSignal:vector  ETV
attr interpolationmode  none
attr title  "Rac distance to enb, vector"
vector 232  CAIN.ueD2DTx[4].nic.mac  sentPacketToLowerLayer:vector(packetBytes)  ETV
attr interpolationmode  none
attr source  sentPacketToLowerLayer
vector 133  CAIN.ueD2DTx[0].nic.mac  racpkt:vector  ETV
attr interpolationmode  none
attr title  "eNB received racpkt message, vector"
vector 134  CAIN.ueD2DTx[0].nic.mac  racDistanceSignal:vector  ETV
attr interpolationmode  none
attr title  "Rac distance to enb, vector"
vector 203  CAIN.ueD2DTx[3].nic.mac  receivedPacketFromLowerLayer:vector(packetBytes)  ETV
attr interpolationmode  none
attr source  receivedPacketFromLowerLayer
vector 214  CAIN.ueD2DTx[3].nic.mac  racpkt:vector  ETV
attr interpolationmode  none
attr title  "eNB received racpkt message, vector"
vector 215  CAIN.ueD2DTx[3].nic.mac  racDistanceSignal:vector  ETV
attr interpolationmode  none
attr title  "Rac distance to enb, vector"
vector 205  CAIN.ueD2DTx[3].nic.mac  sentPacketToLowerLayer:vector(packetBytes)  ETV
attr interpolationmode  none
attr source  sentPacketToLowerLayer
vector 93  CAIN.eNodeB.nic.mac  ServedDevs:vector  ETV
attr interpolationmode  none
attr title  "# of devices served on cain forwarding, vector"
vector 91  CAIN.eNodeB.nic.mac  DistanceSignal:vector  ETV
attr interpolationmode  none
attr title  "Distance to enb, vector"
vector 89  CAIN.eNodeB.nic.mac  CainMessage:vector  ETV
attr interpolationmode  none
attr title  "eNB received CAIN message, vector"
vector 288  CAIN.ueD2DTx[1].tcp  tcpRcvQueueBytes  ETV
vector 275  CAIN.ueD2DTx[1].tcp  "advertised window"  ETV
vector 274  CAIN.ueD2DTx[1].tcp  "receive window"  ETV
vector 277  CAIN.ueD2DTx[1].tcp  "sent ack"  ETV
vector 144  CAIN.ueD2DTx[1].nic.pdcpRrc  receivedPacketFromUpperLayer:vector(packetBytes)  ETV
attr interpolationmode  none
attr source  receivedPacketFromUpperLayer
vector 147  CAIN.ueD2DTx[1].nic.pdcpRrc  sentPacketToLowerLayer:vector(packetBytes)  ETV
attr interpolationmode  none
attr source  sentPacketToLowerLayer
vector 148  CAIN.ueD2DTx[1].nic.mac  receivedPacketFromUpperLayer:vector(packetBytes)  ETV
attr interpolationmode  none
attr source  receivedPacketFromUpperLayer
vector 92  CAIN.eNodeB.nic.mac  HopDistanceSignal:vector  ETV
attr interpolationmode  none
attr title  "Distance to enb with hop forwarding, vector"
vector 90  CAIN.eNodeB.nic.mac  CainHopMessage:vector  ETV
attr interpolationmode  none
attr title  "eNB received CAIN hop message, vector"
vector 150  CAIN.ueD2DTx[1].nic.mac  sentPacketToUpperLayer:vector(packetBytes)  ETV
attr interpolationmode  none
attr source  sentPacketToUpperLayer
vector 99  CAIN.eNodeB.nic.phy  averageCqiUlvect:vector  ETV
attr source  averageCqiUlvect
attr title  "Average Cqi reported in UL, vector"
attr unit  cqi
vector 86  CAIN.eNodeB.nic.mac  sentPacketToUpperLayer:vector(packetBytes)  ETV
attr interpolationmode  none
attr source  sentPacketToUpperLayer
vector 81  CAIN.eNodeB.nic.pdcpRrc  receivedPacketFromLowerLayer:vector(packetBytes)  ETV
attr interpolationmode  none
attr source  receivedPacketFromLowerLayer
vector 82  CAIN.eNodeB.nic.pdcpRrc  sentPacketToUpperLayer:vector(packetBytes)  ETV
attr interpolationmode  none
attr source  sentPacketToUpperLayer
vector 80  CAIN.eNodeB.nic.pdcpRrc  receivedPacketFromUpperLayer:vector(packetBytes)  ETV
attr interpolationmode  none
attr source  receivedPacketFromUpperLayer
vector 83  CAIN.eNodeB.nic.pdcpRrc  sentPacketToLowerLayer:vector(packetBytes)  ETV
attr interpolationmode  none
attr source  sentPacketToLowerLayer
vector 84  CAIN.eNodeB.nic.mac  receivedPacketFromUpperLayer:vector(packetBytes)  ETV
attr interpolationmode  none
attr source  receivedPacketFromUpperLayer
vector 88  CAIN.eNodeB.nic.mac  measuredItbs:vector  ETV
attr source  measuredItbs
attr title  "TBS index, vector"
attr unit  ""
vector 189  CAIN.ueD2DTx[2].nic.phy  averageCqiDlvect:vector  ETV
attr source  averageCqiDlvect
attr title  "Average Cqi reported in DL, vector"
attr unit  cqi
vector 177  CAIN.ueD2DTx[2].nic.mac  sentPacketToUpperLayer:vector(packetBytes)  ETV
attr interpolationmode  none
attr source  sentPacketToUpperLayer
vector 172  CAIN.ueD2DTx[2].nic.pdcpRrc  receivedPacketFromLowerLayer:vector(packetBytes)  ETV
attr interpolationmode  none
attr source  receivedPacketFromLowerLayer
vector 173  CAIN.ueD2DTx[2].nic.pdcpRrc  sentPacketToUpperLayer:vector(packetBytes)  ETV
attr interpolationmode  none
attr source  sentPacketToUpperLayer
vector 312  CAIN.ueD2DTx[2].tcp  tcpRcvQueueBytes  ETV
vector 299  CAIN.ueD2DTx[2].tcp  "advertised window"  ETV
vector 298  CAIN.ueD2DTx[2].tcp  "receive window"  ETV
vector 301  CAIN.ueD2DTx[2].tcp  "sent ack"  ETV
vector 171  CAIN.ueD2DTx[2].nic.pdcpRrc  receivedPacketFromUpperLayer:vector(packetBytes)  ETV
attr interpolationmode  none
attr source  receivedPacketFromUpperLayer
vector 174  CAIN.ueD2DTx[2].nic.pdcpRrc  sentPacketToLowerLayer:vector(packetBytes)  ETV
attr interpolationmode  none
attr source  sentPacketToLowerLayer
vector 175  CAIN.ueD2DTx[2].nic.mac  receivedPacketFromUpperLayer:vector(packetBytes)  ETV
attr interpolationmode  none
attr source  receivedPacketFromUpperLayer
vector 336  CAIN.ueD2DTx[3].tcp  tcpRcvQueueBytes  ETV
vector 323  CAIN.ueD2DTx[3].tcp  "advertised window"  ETV
vector 322  CAIN.ueD2DTx[3].tcp  "receive window"  ETV
vector 325  CAIN.ueD2DTx[3].tcp  "sent ack"  ETV
vector 198  CAIN.ueD2DTx[3].nic.pdcpRrc  receivedPacketFromUpperLayer:vector(packetBytes)  ETV
attr interpolationmode  none
attr source  receivedPacketFromUpperLayer
vector 201  CAIN.ueD2DTx[3].nic.pdcpRrc  sentPacketToLowerLayer:vector(packetBytes)  ETV
attr interpolationmode  none
attr source  sentPacketToLowerLayer
vector 202  CAIN.ueD2DTx[3].nic.mac  receivedPacketFromUpperLayer:vector(packetBytes)  ETV
attr interpolationmode  none
attr source  receivedPacketFromUpperLayer
vector 204  CAIN.ueD2DTx[3].nic.mac  sentPacketToUpperLayer:vector(packetBytes)  ETV
attr interpolationmode  none
attr source  sentPacketToUpperLayer
vector 243  CAIN.ueD2DTx[4].nic.phy  averageCqiDlvect:vector  ETV
attr source  averageCqiDlvect
attr title  "Average Cqi reported in DL, vector"
attr unit  cqi
vector 231  CAIN.ueD2DTx[4].nic.mac  sentPacketToUpperLayer:vector(packetBytes)  ETV
attr interpolationmode  none
attr source  sentPacketToUpperLayer
vector 226  CAIN.ueD2DTx[4].nic.pdcpRrc  receivedPacketFromLowerLayer:vector(packetBytes)  ETV
attr interpolationmode  none
attr source  receivedPacketFromLowerLayer
vector 227  CAIN.ueD2DTx[4].nic.pdcpRrc  sentPacketToUpperLayer:vector(packetBytes)  ETV
attr interpolationmode  none
attr source  sentPacketToUpperLayer
vector 135  CAIN.ueD2DTx[0].nic.phy  averageCqiDlvect:vector  ETV
attr source  averageCqiDlvect
attr title  "Average Cqi reported in DL, vector"
attr unit  cqi
vector 360  CAIN.ueD2DTx[4].tcp  tcpRcvQueueBytes  ETV
vector 347  CAIN.ueD2DTx[4].tcp  "advertised window"  ETV
vector 346  CAIN.ueD2DTx[4].tcp  "receive window"  ETV
vector 349  CAIN.ueD2DTx[4].tcp  "sent ack"  ETV
vector 225  CAIN.ueD2DTx[4].nic.pdcpRrc  receivedPacketFromUpperLayer:vector(packetBytes)  ETV
attr interpolationmode  none
attr source  receivedPacketFromUpperLayer
vector 228  CAIN.ueD2DTx[4].nic.pdcpRrc  sentPacketToLowerLayer:vector(packetBytes)  ETV
attr interpolationmode  none
attr source  sentPacketToLowerLayer
vector 229  CAIN.ueD2DTx[4].nic.mac  receivedPacketFromUpperLayer:vector(packetBytes)  ETV
attr interpolationmode  none
attr source  receivedPacketFromUpperLayer
vector 123  CAIN.ueD2DTx[0].nic.mac  sentPacketToUpperLayer:vector(packetBytes)  ETV
attr interpolationmode  none
attr source  sentPacketToUpperLayer
vector 118  CAIN.ueD2DTx[0].nic.pdcpRrc  receivedPacketFromLowerLayer:vector(packetBytes)  ETV
attr interpolationmode  none
attr source  receivedPacketFromLowerLayer
vector 119  CAIN.ueD2DTx[0].nic.pdcpRrc  sentPacketToUpperLayer:vector(packetBytes)  ETV
attr interpolationmode  none
attr source  sentPacketToUpperLayer
8	17263 8 0 0 0 0 1 0 0 0 0
9	17271 8 0 0 0 0 1 0 0 0 0
24	17279 9 0 0 0 0 1 0 0 0 0
25	17288 9 0 0 0 0 1 0 0 0 0
35	17297 9 0 0 0 0 1 0 0 0 0
36	17306 9 0 0 0 0 1 0 0 0 0
56	17315 9 0 0 0 0 1 0 0 0 0
57	17324 9 0 0 0 0 1 0 0 0 0
67	17333 9 0 0 0 0 1 0 0 0 0
68	17342 9 0 0 0 0 1 0 0 0 0
80	17351 215 846 212373 0.054 9.098 12 44 44 528 23232
81	17566 215 841 212368 0.054 9.098 12 45 45 540 24300
82	17781 215 841 212368 0.054 9.098 12 44 44 528 23232
83	17996 215 846 212373 0.054 9.098 12 45 45 540 24300
84	18211 430 849 212411 0.054 9.099 24 45 47 1104 50808
85	18641 318853 60 233332 0.002 10 18428 0 0 0 0
86	337494 577 837 212407 0.054 9.099 33 0 47 582 22098
87	338071 141787 472 233237 0.041 9.997 8091 0 0 0 0
88	479858 215 874 212407 0.055 9.099 12 26 26 312 8112
89	480073 161795 570 233332 0.045 10 8044 1 8044 32356990 173530537370
90	641868 81489 624 233258 0.047 9.997 4024 1 4024 8098300 21727738900
91	723357 76286 570 233332 0.045 10 4020 162 424 1177392 413759490
92	799643 78572 624 233258 0.047 9.997 4024 182 253 875220 195431596
93	878215 68246 570 233332 0.045 10 4020 1 2 8039 16077
96	946461 122811 472 233258 0.041 9.997 6037 1 6037 18225703 73358454575
97	1069272 113860 472 233258 0.041 9.997 6037 78 253 681321 91589751
99	1183132 416 761 212282 0.051 9.095 24 6 15 252 3132
104	1183548 10 0 0 0 0 1 0 0 0 0
105	1183558 10 0 0 0 0 1 0 0 0 0
117	1183568 83 452 210402 0.039044685068 9.039044685068 3 44 44 132 5808
118	1183651 57 2165 212131 0.091 9.091 3 45 45 135 6075
119	1183708 57 2165 212131 0.091 9.091 3 44 44 132 5808
120	1183765 83 452 210402 0.039044685068 9.039044685068 3 45 45 135 6075
121	1183848 83 455 210405 0.039044685068 9.039044685068 3 45 45 135 6075
122	1183931 74377 512 233299 0.043 9.999 4014 0 0 0 0
123	1258308 57 2161 212127 0.091 9.091 3 47 47 141 6627
124	1258365 73225 457 233316 0.04 10 4012 0 0 0 0
133	1331590 42290 544 233299 0.044 9.999 2016 1 2016 2033136 2733212496
134	1373880 41375 544 233299 0.044 9.999 2016 0 215 432795 93050925
135	1415255 57 2089 212056 0.088 9.088 3 15 15 45 675
138	1415312 10 0 0 0 0 1 1 1 1 1
144	1415322 80 577 210546 0.04591139175 9.04591139175 3 44 44 132 5808
147	1415402 80 577 210546 0.04591139175 9.04591139175 3 45 45 135 6075
148	1415482 133 580 210679 0.04591139175 9.05 6 45 47 276 12702
149	1415615 184371 514 233327 0.043 10 10071 0 0 0 0
150	1599986 50 706 210675 0.05 9.05 3 0 0 0 0
151	1600036 184368 514 233327 0.043 10 10071 0 0 0 0
160	1784404 213419 514 233327 0.043 10 10065 1 10065 50657145 339926328665
161	1997823 198365 514 233327 0.043 10 10065 78 253 1347453 232451445
165	2196188 10 0 0 0 0 1 1 1 1 1
171	2196198 84 1003 210971 0.059799300311 9.059799300311 3 44 44 132 5808
172	2196282 113 979 212516 0.059 9.103 6 45 45 270 12150
173	2196395 113 979 212516 0.059 9.103 6 44 44 264 11616
174	2196508 84 1003 210971 0.059799300311 9.059799300311 3 45 45 135 6075
175	2196592 141 1006 211122 0.059799300311 9.064 6 45 47 276 12702
176	2196733 260797 490 233308 0.042 9.999 14077 0 0 0 0
177	2457530 167 975 212512 0.059 9.103 9 0 47 282 13254
178	2457697 297982 490 233308 0.042 9.999 16084 0 0 0 0
187	2755679 305742 490 233308 0.042 9.999 14065 1 14065 98919145 927564822665
188	3061421 276658 490 233308 0.042 9.999 14065 0 215 1621154 331316008
189	3338079 107 921 212447 0.056 9.1 6 15 15 90 1350
192	3338186 10 0 0 0 0 1 1 1 1 1
198	3338196 81 1108 211075 0.06257481047 9.06257481047 3 44 44 132 5808
201	3338277 81 1108 211075 0.06257481047 9.06257481047 3 45 45 135 6075
202	3338358 306 1111 211854 0.06257481047 9.082 15 8 45 294 8292
203	3338664 37727 547 233302 0.044 9.999 2037 0 0 0 0
204	3376391 216 1283 211850 0.067 9.082 12 0 0 0 0
205	3376607 37727 547 233302 0.044 9.999 2037 0 0 0 0
214	3414334 42227 547 233302 0.044 9.999 2013 1 2013 2027091 2721031819
215	3456561 41321 547 233302 0.044 9.999 2013 215 215 432795 93050925
219	3497882 10 0 0 0 0 1 1 1 1 1
225	3497892 84 2127 212093 0.089225798692 9.089225798692 3 44 44 132 5808
226	3497976 57 1511 211478 0.073 9.073 3 45 45 135 6075
227	3498033 57 1511 211478 0.073 9.073 3 44 44 132 5808
228	3498090 84 2127 212093 0.089225798692 9.089225798692 3 45 45 135 6075
229	3498174 141 2130 212245 0.089225798692 9.094 6 45 47 276 12702
230	3498315 37672 523 233288 0.043 9.998 2034 0 0 0 0
231	3535987 111 1507 212241 0.073 9.094 6 0 47 141 6627
232	3536098 37672 523 233288 0.043 9.998 2034 0 0 0 0
241	3573770 42481 523 233288 0.043 9.998 2025 1 2025 2051325 2769972525
242	3616251 39538 523 233288 0.043 9.998 2025 0 215 158481 12626613
243	3655789 54 1394 211361 0.07 9.07 3 15 15 45 675
246	3655843 10 0 0 0 0 1 1 1 1 1
250	3655853 89 449 210399 0.039044685068 9.039044685068 3 7504 7504 22512 168930048
251	3655942 89 449 210399 0.039044685068 9.039044685068 3 7504 7504 22512 168930048
253	3656031 80 449 210399 0.039044685068 9.039044685068 3 0 0 0 0
264	3656111 80 449 210399 0.039044685068 9.039044685068 3 0 0 0 0
274	3656191 86 574 210543 0.04591139175 9.04591139175 3 7504 7504 22512 168930048
275	3656277 86 574 210543 0.04591139175 9.04591139175 3 7504 7504 22512 168930048
277	3656363 77 574 210543 0.04591139175 9.04591139175 3 0 0 0 0
288	3656440 77 574 210543 0.04591139175 9.04591139175 3 0 0 0 0
298	3656517 90 1000 210968 0.059799300311 9.059799300311 3 7504 7504 22512 168930048
299	3656607 90 1000 210968 0.059799300311 9.059799300311 3 7504 7504 22512 168930048
301	3656697 81 1000 210968 0.059799300311 9.059799300311 3 0 0 0 0
312	3656778 81 1000 210968 0.059799300311 9.059799300311 3 0 0 0 0
322	3656859 87 1105 211072 0.06257481047 9.06257481047 3 7504 7504 22512 168930048
323	3656946 87 1105 211072 0.06257481047 9.06257481047 3 7504 7504 22512 168930048
325	3657033 78 1105 211072 0.06257481047 9.06257481047 3 0 0 0 0
336	3657111 78 1105 211072 0.06257481047 9.06257481047 3 0 0 0 0
346	3657189 90 2124 212090 0.089225798692 9.089225798692 3 7504 7504 22512 168930048
347	3657279 90 2124 212090 0.089225798692 9.089225798692 3 7504 7504 22512 168930048
349	3657369 81 2124 212090 0.089225798692 9.089225798692 3 0 0 0 0
360	3657450 81 2124 212090 0.089225798692 9.089225798692 3 0 0 0 0
