file 719243 1580829447                                          
version 2
run CAIN-229-20200204-12:16:40-11052
attr configname CAIN
attr datetime 20200204-12:16:40
attr dist 230
attr experiment CAIN
attr inifile omnetpp.ini
attr iterationvars "$dist=230, $mob=\"./movements/RWPRPGM-0.0.movements\""
attr iterationvars2 "$dist=230, $mob=\"./movements/RWPRPGM-0.0.movements\", $repetition=19"
attr measurement "$dist=230, $mob=\"./movements/RWPRPGM-0.0.movements\""
attr mob "\"./movements/RWPRPGM-0.0.movements\""
attr network lte.simulations.networks.CAIN
attr processid 11052
attr repetition 19
attr replication #19
attr resultdir results
attr runnumber 229
attr seedset 19
param **.**.amcMode "\"AUTO\""
param **.amcMode "\"D2D\""
param **.cainNetwork true
param **.channelControl.alpha 1.0
param **.channelControl.carrierFrequency 2100e+6Hz
param **.channelControl.pMax 10W
param **.d2dCqi 7
param **.deployer.numRbDl 50
param **.deployer.numRbUl 50
param **.distThresh "${dist=200..260 step 10}"
param **.fbDelay 1
param **.feedbackComputation "xmldoc(\"config_channel.xml\")"
param **.mobility.constraintAreaMaxX 1000m
param **.mobility.constraintAreaMaxY 1000m
param **.mobility.constraintAreaMaxZ 0m
param **.mobility.constraintAreaMinX 0m
param **.mobility.constraintAreaMinY 0m
param **.mobility.constraintAreaMinZ 0m
param **.nic.phy.channelModel "xmldoc(\"config_channel.xml\")"
param **.numBands 50
param **.pwrThresh -10
param **.qtdThresh 3
param **.rbAllocationType "\"localized\""
param **.routingRecorder.enabled false
param **.tcpApp[*].tClose -1s
param **.ueD2DTx[*].mobility.changeAngleBy "normal(0deg, 30deg)"
param **.ueD2DTx[*].mobility.changeInterval "normal(5s, 0.1s)"
param **.ueD2DTx[*].mobility.nodeId -1
param **.ueD2DTx[*].mobility.speed "normal(2mps, 0.01mps)"
param **.ueD2DTx[*].mobility.traceFile "${mob=\"./movements/RWPRPGM-0.0.movements\",\"./movements/RWPRPGM-0.5.movements\"}"
param **.ueD2DTx[*].mobilityType "\"BonnMotionMobility\""
param **.usePreconfiguredTxParams false
param *.eNodeB.d2dCapable false
param *.eNodeB.mobility.initFromDisplayString false
param *.eNodeB.mobility.initialX 300m
param *.eNodeB.mobility.initialY 300m
param *.eNodeB.nic.phy.enableD2DCqiReporting true
param *.eNodeB.txPower 19952.62315mw
param *.numUeCell 0
param *.numUeD2DRx 1
param *.numUeD2DTx 1
param *.ue*.macCellId 1
param *.ue*.masterId 1
param *.ue*.mobility.initFromDisplayString false
param *.ue*[0].macCellId 1
param *.ue*[0].masterId 1
param *.ue*[0].mobility.initFromDisplayString false
param *.ueD2D*.numTcpApps 1
param *.ueD2D*[*].d2dCapable true
param *.ueD2D*[0].d2dCapable false
param *.ueD2D*[0].numTcpApps 1
param *.ueD2DRx[0].mobility.initialX 310m
param *.ueD2DRx[0].mobility.initialY 350m
param *.ueD2DRx[0].tcpApp[*].localPort 1000
param *.ueD2DRx[0].tcpApp[*].typename "\"TCPSinkApp\""
param *.ueD2DTx*.tcpApp[*].connectAddress "\"ueD2DTx[0]\""
param *.ueD2DTx*.tcpApp[*].localAddress "\"ueD2DTx\""
param *.ueD2DTx*.tcpApp[*].localPort 1000
param *.ueD2DTx*.tcpApp[*].sendBytes 1GiB
param *.ueD2DTx*.tcpApp[*].typename "\"TCPSessionApp\""
param *.ueD2DTx*.tcpApp[0].active true
param *.ueD2DTx*.tcpApp[0].connectPort 1000
param *.ueD2DTx*.tcpApp[0].tOpen uniform(0.010s,0.1s)
param *.ueD2DTx*.tcpApp[0].tSend uniform(0.15s,0.5s)
param *.ueD2DTx[0].mobility.initialX 290m
param *.ueD2DTx[0].mobility.initialY 350m
param *.ueD2DTx[0].nic.d2dPeerAddresses "\"ueD2DTx[1]\""
param *.ueD2DTx[0].tcpApp[*].localPort 1000
param *.ueD2DTx[0].tcpApp[*].sendBytes 1GiB
param *.ueD2DTx[0].tcpApp[*].typename "\"TCPSessionApp\""
param *.ueD2DTx[0].tcpApp[0].active true
param *.ueD2DTx[0].tcpApp[0].connectAddress "\"ueD2DRx[0]\""
param *.ueD2DTx[0].tcpApp[0].connectPort 1000
param *.ueD2DTx[0].tcpApp[0].localAddress "\"ueD2DTx[0]\""
param *.ueD2DTx[0].tcpApp[0].tOpen uniform(0.010s,0.1s)
param *.ueD2DTx[0].tcpApp[0].tSend uniform(0.15s,0.5s)
param *.ueD2DTx[1].nic.d2dPeerAddresses "\"ueD2DTx[0]\""

vector 8  CAIN.server.ppp[0].queue  queueLength:vector  ETV
attr interpolationmode  sample-hold
attr title  "queue length, vector"
vector 9  CAIN.server.ppp[0].ppp  txState:vector  ETV
attr interpolationmode  sample-hold
attr title  "tx state, vector"
vector 24  CAIN.router.ppp[0].queue  queueLength:vector  ETV
attr interpolationmode  sample-hold
attr title  "queue length, vector"
vector 25  CAIN.router.ppp[0].ppp  txState:vector  ETV
attr interpolationmode  sample-hold
attr title  "tx state, vector"
vector 35  CAIN.router.ppp[1].queue  queueLength:vector  ETV
attr interpolationmode  sample-hold
attr title  "queue length, vector"
vector 36  CAIN.router.ppp[1].ppp  txState:vector  ETV
attr interpolationmode  sample-hold
attr title  "tx state, vector"
vector 56  CAIN.pgw.ppp[0].queue  queueLength:vector  ETV
attr interpolationmode  sample-hold
attr title  "queue length, vector"
vector 57  CAIN.pgw.ppp[0].ppp  txState:vector  ETV
attr interpolationmode  sample-hold
attr title  "tx state, vector"
vector 67  CAIN.pgw.pppInterface.queue  queueLength:vector  ETV
attr interpolationmode  sample-hold
attr title  "queue length, vector"
vector 68  CAIN.pgw.pppInterface.ppp  txState:vector  ETV
attr interpolationmode  sample-hold
attr title  "tx state, vector"
vector 104  CAIN.eNodeB.pppIf.queue  queueLength:vector  ETV
attr interpolationmode  sample-hold
attr title  "queue length, vector"
vector 105  CAIN.eNodeB.pppIf.ppp  txState:vector  ETV
attr interpolationmode  sample-hold
attr title  "tx state, vector"
vector 138  CAIN.ueD2DTx[0].nic.phy  servingCell:vector  ETV
attr source  servingCell
attr title  "ID of the serving eNodeB for the UE, vector"
attr unit  ""
vector 165  CAIN.ueD2DTx[1].nic.phy  servingCell:vector  ETV
attr source  servingCell
attr title  "ID of the serving eNodeB for the UE, vector"
attr unit  ""
vector 192  CAIN.ueD2DTx[2].nic.phy  servingCell:vector  ETV
attr source  servingCell
attr title  "ID of the serving eNodeB for the UE, vector"
attr unit  ""
vector 219  CAIN.ueD2DTx[3].nic.phy  servingCell:vector  ETV
attr source  servingCell
attr title  "ID of the serving eNodeB for the UE, vector"
attr unit  ""
vector 246  CAIN.ueD2DTx[4].nic.phy  servingCell:vector  ETV
attr source  servingCell
attr title  "ID of the serving eNodeB for the UE, vector"
attr unit  ""
vector 85  CAIN.eNodeB.nic.mac  receivedPacketFromLowerLayer:vector(packetBytes)  ETV
attr interpolationmode  none
attr source  receivedPacketFromLowerLayer
vector 264  CAIN.ueD2DTx[1].tcp  tcpRcvQueueBytes  ETV
vector 251  CAIN.ueD2DTx[1].tcp  "advertised window"  ETV
vector 250  CAIN.ueD2DTx[1].tcp  "receive window"  ETV
vector 253  CAIN.ueD2DTx[1].tcp  "sent ack"  ETV
vector 144  CAIN.ueD2DTx[1].nic.pdcpRrc  receivedPacketFromUpperLayer:vector(packetBytes)  ETV
attr interpolationmode  none
attr source  receivedPacketFromUpperLayer
vector 147  CAIN.ueD2DTx[1].nic.pdcpRrc  sentPacketToLowerLayer:vector(packetBytes)  ETV
attr interpolationmode  none
attr source  sentPacketToLowerLayer
vector 148  CAIN.ueD2DTx[1].nic.mac  receivedPacketFromUpperLayer:vector(packetBytes)  ETV
attr interpolationmode  none
attr source  receivedPacketFromUpperLayer
vector 151  CAIN.ueD2DTx[1].nic.mac  sentPacketToLowerLayer:vector(packetBytes)  ETV
attr interpolationmode  none
attr source  sentPacketToLowerLayer
vector 96  CAIN.eNodeB.nic.mac  racpkt:vector  ETV
attr interpolationmode  none
attr title  "eNB received racpkt message, vector"
vector 97  CAIN.eNodeB.nic.mac  racDistanceSignal:vector  ETV
attr interpolationmode  none
attr title  "Rac distance to enb, vector"
vector 87  CAIN.eNodeB.nic.mac  sentPacketToLowerLayer:vector(packetBytes)  ETV
attr interpolationmode  none
attr source  sentPacketToLowerLayer
vector 149  CAIN.ueD2DTx[1].nic.mac  receivedPacketFromLowerLayer:vector(packetBytes)  ETV
attr interpolationmode  none
attr source  receivedPacketFromLowerLayer
vector 160  CAIN.ueD2DTx[1].nic.mac  racpkt:vector  ETV
attr interpolationmode  none
attr title  "eNB received racpkt message, vector"
vector 161  CAIN.ueD2DTx[1].nic.mac  racDistanceSignal:vector  ETV
attr interpolationmode  none
attr title  "Rac distance to enb, vector"
vector 99  CAIN.eNodeB.nic.phy  averageCqiUlvect:vector  ETV
attr source  averageCqiUlvect
attr title  "Average Cqi reported in UL, vector"
attr unit  cqi
vector 288  CAIN.ueD2DTx[2].tcp  tcpRcvQueueBytes  ETV
vector 275  CAIN.ueD2DTx[2].tcp  "advertised window"  ETV
vector 274  CAIN.ueD2DTx[2].tcp  "receive window"  ETV
vector 277  CAIN.ueD2DTx[2].tcp  "sent ack"  ETV
vector 171  CAIN.ueD2DTx[2].nic.pdcpRrc  receivedPacketFromUpperLayer:vector(packetBytes)  ETV
attr interpolationmode  none
attr source  receivedPacketFromUpperLayer
vector 174  CAIN.ueD2DTx[2].nic.pdcpRrc  sentPacketToLowerLayer:vector(packetBytes)  ETV
attr interpolationmode  none
attr source  sentPacketToLowerLayer
vector 175  CAIN.ueD2DTx[2].nic.mac  receivedPacketFromUpperLayer:vector(packetBytes)  ETV
attr interpolationmode  none
attr source  receivedPacketFromUpperLayer
vector 178  CAIN.ueD2DTx[2].nic.mac  sentPacketToLowerLayer:vector(packetBytes)  ETV
attr interpolationmode  none
attr source  sentPacketToLowerLayer
vector 176  CAIN.ueD2DTx[2].nic.mac  receivedPacketFromLowerLayer:vector(packetBytes)  ETV
attr interpolationmode  none
attr source  receivedPacketFromLowerLayer
vector 187  CAIN.ueD2DTx[2].nic.mac  racpkt:vector  ETV
attr interpolationmode  none
attr title  "eNB received racpkt message, vector"
vector 188  CAIN.ueD2DTx[2].nic.mac  racDistanceSignal:vector  ETV
attr interpolationmode  none
attr title  "Rac distance to enb, vector"
vector 177  CAIN.ueD2DTx[2].nic.mac  sentPacketToUpperLayer:vector(packetBytes)  ETV
attr interpolationmode  none
attr source  sentPacketToUpperLayer
vector 86  CAIN.eNodeB.nic.mac  sentPacketToUpperLayer:vector(packetBytes)  ETV
attr interpolationmode  none
attr source  sentPacketToUpperLayer
vector 88  CAIN.eNodeB.nic.mac  measuredItbs:vector  ETV
attr source  measuredItbs
attr title  "TBS index, vector"
attr unit  ""
vector 81  CAIN.eNodeB.nic.pdcpRrc  receivedPacketFromLowerLayer:vector(packetBytes)  ETV
attr interpolationmode  none
attr source  receivedPacketFromLowerLayer
vector 82  CAIN.eNodeB.nic.pdcpRrc  sentPacketToUpperLayer:vector(packetBytes)  ETV
attr interpolationmode  none
attr source  sentPacketToUpperLayer
vector 80  CAIN.eNodeB.nic.pdcpRrc  receivedPacketFromUpperLayer:vector(packetBytes)  ETV
attr interpolationmode  none
attr source  receivedPacketFromUpperLayer
vector 83  CAIN.eNodeB.nic.pdcpRrc  sentPacketToLowerLayer:vector(packetBytes)  ETV
attr interpolationmode  none
attr source  sentPacketToLowerLayer
vector 84  CAIN.eNodeB.nic.mac  receivedPacketFromUpperLayer:vector(packetBytes)  ETV
attr interpolationmode  none
attr source  receivedPacketFromUpperLayer
vector 135  CAIN.ueD2DTx[0].nic.phy  averageCqiDlvect:vector  ETV
attr source  averageCqiDlvect
attr title  "Average Cqi reported in DL, vector"
attr unit  cqi
vector 122  CAIN.ueD2DTx[0].nic.mac  receivedPacketFromLowerLayer:vector(packetBytes)  ETV
attr interpolationmode  none
attr source  receivedPacketFromLowerLayer
vector 124  CAIN.ueD2DTx[0].nic.mac  sentPacketToLowerLayer:vector(packetBytes)  ETV
attr interpolationmode  none
attr source  sentPacketToLowerLayer
vector 123  CAIN.ueD2DTx[0].nic.mac  sentPacketToUpperLayer:vector(packetBytes)  ETV
attr interpolationmode  none
attr source  sentPacketToUpperLayer
vector 118  CAIN.ueD2DTx[0].nic.pdcpRrc  receivedPacketFromLowerLayer:vector(packetBytes)  ETV
attr interpolationmode  none
attr source  receivedPacketFromLowerLayer
vector 119  CAIN.ueD2DTx[0].nic.pdcpRrc  sentPacketToUpperLayer:vector(packetBytes)  ETV
attr interpolationmode  none
attr source  sentPacketToUpperLayer
vector 133  CAIN.ueD2DTx[0].nic.mac  racpkt:vector  ETV
attr interpolationmode  none
attr title  "eNB received racpkt message, vector"
vector 134  CAIN.ueD2DTx[0].nic.mac  racDistanceSignal:vector  ETV
attr interpolationmode  none
attr title  "Rac distance to enb, vector"
vector 203  CAIN.ueD2DTx[3].nic.mac  receivedPacketFromLowerLayer:vector(packetBytes)  ETV
attr interpolationmode  none
attr source  receivedPacketFromLowerLayer
vector 214  CAIN.ueD2DTx[3].nic.mac  racpkt:vector  ETV
attr interpolationmode  none
attr title  "eNB received racpkt message, vector"
vector 215  CAIN.ueD2DTx[3].nic.mac  racDistanceSignal:vector  ETV
attr interpolationmode  none
attr title  "Rac distance to enb, vector"
vector 205  CAIN.ueD2DTx[3].nic.mac  sentPacketToLowerLayer:vector(packetBytes)  ETV
attr interpolationmode  none
attr source  sentPacketToLowerLayer
vector 230  CAIN.ueD2DTx[4].nic.mac  receivedPacketFromLowerLayer:vector(packetBytes)  ETV
attr interpolationmode  none
attr source  receivedPacketFromLowerLayer
vector 241  CAIN.ueD2DTx[4].nic.mac  racpkt:vector  ETV
attr interpolationmode  none
attr title  "eNB received racpkt message, vector"
vector 242  CAIN.ueD2DTx[4].nic.mac  racDistanceSignal:vector  ETV
attr interpolationmode  none
attr title  "Rac distance to enb, vector"
vector 232  CAIN.ueD2DTx[4].nic.mac  sentPacketToLowerLayer:vector(packetBytes)  ETV
attr interpolationmode  none
attr source  sentPacketToLowerLayer
vector 93  CAIN.eNodeB.nic.mac  ServedDevs:vector  ETV
attr interpolationmode  none
attr title  "# of devices served on cain forwarding, vector"
vector 91  CAIN.eNodeB.nic.mac  DistanceSignal:vector  ETV
attr interpolationmode  none
attr title  "Distance to enb, vector"
vector 89  CAIN.eNodeB.nic.mac  CainMessage:vector  ETV
attr interpolationmode  none
attr title  "eNB received CAIN message, vector"
vector 92  CAIN.eNodeB.nic.mac  HopDistanceSignal:vector  ETV
attr interpolationmode  none
attr title  "Distance to enb with hop forwarding, vector"
vector 90  CAIN.eNodeB.nic.mac  CainHopMessage:vector  ETV
attr interpolationmode  none
attr title  "eNB received CAIN hop message, vector"
vector 312  CAIN.ueD2DTx[0].tcp  tcpRcvQueueBytes  ETV
vector 299  CAIN.ueD2DTx[0].tcp  "advertised window"  ETV
vector 298  CAIN.ueD2DTx[0].tcp  "receive window"  ETV
vector 301  CAIN.ueD2DTx[0].tcp  "sent ack"  ETV
vector 117  CAIN.ueD2DTx[0].nic.pdcpRrc  receivedPacketFromUpperLayer:vector(packetBytes)  ETV
attr interpolationmode  none
attr source  receivedPacketFromUpperLayer
vector 120  CAIN.ueD2DTx[0].nic.pdcpRrc  sentPacketToLowerLayer:vector(packetBytes)  ETV
attr interpolationmode  none
attr source  sentPacketToLowerLayer
vector 121  CAIN.ueD2DTx[0].nic.mac  receivedPacketFromUpperLayer:vector(packetBytes)  ETV
attr interpolationmode  none
attr source  receivedPacketFromUpperLayer
vector 336  CAIN.ueD2DTx[3].tcp  tcpRcvQueueBytes  ETV
vector 323  CAIN.ueD2DTx[3].tcp  "advertised window"  ETV
vector 322  CAIN.ueD2DTx[3].tcp  "receive window"  ETV
vector 325  CAIN.ueD2DTx[3].tcp  "sent ack"  ETV
vector 198  CAIN.ueD2DTx[3].nic.pdcpRrc  receivedPacketFromUpperLayer:vector(packetBytes)  ETV
attr interpolationmode  none
attr source  receivedPacketFromUpperLayer
vector 201  CAIN.ueD2DTx[3].nic.pdcpRrc  sentPacketToLowerLayer:vector(packetBytes)  ETV
attr interpolationmode  none
attr source  sentPacketToLowerLayer
vector 202  CAIN.ueD2DTx[3].nic.mac  receivedPacketFromUpperLayer:vector(packetBytes)  ETV
attr interpolationmode  none
attr source  receivedPacketFromUpperLayer
vector 204  CAIN.ueD2DTx[3].nic.mac  sentPacketToUpperLayer:vector(packetBytes)  ETV
attr interpolationmode  none
attr source  sentPacketToUpperLayer
vector 216  CAIN.ueD2DTx[3].nic.phy  averageCqiDlvect:vector  ETV
attr source  averageCqiDlvect
attr title  "Average Cqi reported in DL, vector"
attr unit  cqi
vector 199  CAIN.ueD2DTx[3].nic.pdcpRrc  receivedPacketFromLowerLayer:vector(packetBytes)  ETV
attr interpolationmode  none
attr source  receivedPacketFromLowerLayer
vector 200  CAIN.ueD2DTx[3].nic.pdcpRrc  sentPacketToUpperLayer:vector(packetBytes)  ETV
attr interpolationmode  none
attr source  sentPacketToUpperLayer
vector 360  CAIN.ueD2DTx[4].tcp  tcpRcvQueueBytes  ETV
vector 347  CAIN.ueD2DTx[4].tcp  "advertised window"  ETV
vector 346  CAIN.ueD2DTx[4].tcp  "receive window"  ETV
vector 349  CAIN.ueD2DTx[4].tcp  "sent ack"  ETV
vector 225  CAIN.ueD2DTx[4].nic.pdcpRrc  receivedPacketFromUpperLayer:vector(packetBytes)  ETV
attr interpolationmode  none
attr source  receivedPacketFromUpperLayer
vector 228  CAIN.ueD2DTx[4].nic.pdcpRrc  sentPacketToLowerLayer:vector(packetBytes)  ETV
attr interpolationmode  none
attr source  sentPacketToLowerLayer
vector 229  CAIN.ueD2DTx[4].nic.mac  receivedPacketFromUpperLayer:vector(packetBytes)  ETV
attr interpolationmode  none
attr source  receivedPacketFromUpperLayer
vector 231  CAIN.ueD2DTx[4].nic.mac  sentPacketToUpperLayer:vector(packetBytes)  ETV
attr interpolationmode  none
attr source  sentPacketToUpperLayer
8	16633 8 0 0 0 0 1 0 0 0 0
9	16641 8 0 0 0 0 1 0 0 0 0
24	16649 9 0 0 0 0 1 0 0 0 0
25	16658 9 0 0 0 0 1 0 0 0 0
35	16667 9 0 0 0 0 1 0 0 0 0
36	16676 9 0 0 0 0 1 0 0 0 0
56	16685 9 0 0 0 0 1 0 0 0 0
57	16694 9 0 0 0 0 1 0 0 0 0
67	16703 9 0 0 0 0 1 0 0 0 0
68	16712 9 0 0 0 0 1 0 0 0 0
80	16721 215 522 124460 0.037 9.088 12 44 44 528 23232
81	16936 215 517 124455 0.037 9.088 12 45 45 540 24300
82	17151 215 517 124455 0.037 9.088 12 44 44 528 23232
83	17366 215 522 124460 0.037 9.088 12 45 45 540 24300
84	17581 430 525 124477 0.037 9.089 24 45 47 1104 50808
85	18011 210985 60 136857 0.002 9.998 12382 0 0 0 0
86	228996 418 512 124472 0.037 9.089 24 0 47 564 26508
87	229414 104204 224 136860 0.017 9.999 6062 0 0 0 0
88	333618 376 512 124472 0.037 9.089 21 25 26 543 14043
89	333994 419 722 124300 0.046 9.078 24 1 24 300 4900
90	334413 312 758 124300 0.048 9.078 18 1 18 171 2109
91	334725 113 722 124260 0.046 9.076 6 253 253 1518 384054
92	334838 333 758 124300 0.048 9.078 18 78 215 2730 471318
93	335171 101 722 124260 0.046 9.076 6 1 1 6 6
96	335272 39810 224 136838 0.017 9.997 2027 1 2027 2055378 2778185930
97	375082 38887 224 136838 0.017 9.997 2027 78 253 434656 93295940
99	413969 34437 282 136823 0.021 9.996 2002 8 15 16094 129892
104	448406 10 0 0 0 0 1 0 0 0 0
105	448416 10 0 0 0 0 1 0 0 0 0
117	448426 83 891 123849 0.057552872477 9.057552872477 3 44 44 132 5808
118	448509 170 608 124551 0.042 9.093 9 45 45 405 18225
119	448679 170 608 124551 0.042 9.093 9 44 44 396 17424
120	448849 83 891 123849 0.057552872477 9.057552872477 3 45 45 135 6075
121	448932 139 894 123932 0.057552872477 9.062 6 45 47 276 12702
122	449071 1225 576 124509 0.039 9.09 69 0 0 0 0
123	450296 223 604 124547 0.042 9.093 12 0 47 423 19881
124	450519 1123 604 124547 0.042 9.093 63 0 0 0 0
133	451642 948 639 124278 0.043 9.077 51 1 51 1326 45526
134	452590 954 639 124278 0.043 9.077 51 0 253 6072 1536216
135	453544 167 575 124508 0.039 9.09 9 15 15 135 2025
138	453711 10 0 0 0 0 1 1 1 1 1
144	453721 83 204 123159 0.015009333936 9.015009333936 3 44 44 132 5808
147	453804 83 204 123159 0.015009333936 9.015009333936 3 45 45 135 6075
148	453887 83 207 123162 0.015009333936 9.015009333936 3 45 45 135 6075
149	453970 107774 240 136885 0.018 10 5984 0 0 0 0
151	561744 71552 210 136882 0.016 10 3994 0 0 0 0
160	633296 41220 240 136859 0.018 9.998 1997 1 1997 1995003 2656678995
161	674516 36348 240 136859 0.018 9.998 1997 0 253 1518 384054
165	710864 10 0 0 0 0 1 1 1 1 1
171	710874 83 379 123338 0.028957442478 9.028957442478 3 44 44 132 5808
174	710957 83 379 123338 0.028957442478 9.028957442478 3 45 45 135 6075
175	711040 139 382 123420 0.028957442478 9.033 6 45 47 276 12702
176	711179 319 430 124231 0.031 9.075 18 0 0 0 0
177	711498 53 457 123416 0.033 9.033 3 0 0 0 0
178	711551 213 387 124231 0.029 9.075 12 0 0 0 0
187	711764 160 430 124231 0.031 9.075 9 1 9 45 285
188	711924 172 430 124231 0.031 9.075 9 0 253 1518 384054
192	712096 10 0 0 0 0 1 1 1 1 1
198	712106 80 910 123867 0.05802467078 9.05802467078 3 44 44 132 5808
199	712186 57 1169 124126 0.071 9.071 3 45 45 135 6075
200	712243 57 1169 124126 0.071 9.071 3 44 44 132 5808
201	712300 80 910 123867 0.05802467078 9.05802467078 3 45 45 135 6075
202	712380 137 913 123964 0.05802467078 9.063 6 45 47 276 12702
203	712517 1017 671 124257 0.044 9.076 57 0 0 0 0
204	713534 111 1003 124122 0.063 9.071 6 0 47 141 6627
205	713645 910 671 124257 0.044 9.076 51 0 0 0 0
214	714555 838 671 124257 0.044 9.076 45 1 45 1035 31395
215	715393 880 671 124257 0.044 9.076 45 0 215 7098 1266294
216	716273 57 1132 124089 0.068 9.068 3 15 15 45 675
219	716330 10 0 0 0 0 1 1 1 1 1
225	716340 81 1362 124318 0.07979170742 9.07979170742 3 44 44 132 5808
228	716421 81 1362 124318 0.07979170742 9.07979170742 3 45 45 135 6075
229	716502 138 1365 124395 0.07979170742 9.084 6 45 47 276 12702
230	716640 323 696 124490 0.045 9.089 18 0 0 0 0
231	716963 54 1435 124391 0.084 9.084 3 0 0 0 0
232	717017 212 696 124397 0.045 9.084 12 0 0 0 0
241	717229 161 696 124367 0.045 9.082 9 1 9 45 285
242	717390 173 696 124367 0.045 9.082 9 0 253 1518 384054
246	717563 10 0 0 0 0 1 1 1 1 1
250	717573 89 201 123156 0.015009333936 9.015009333936 3 7504 7504 22512 168930048
251	717662 89 201 123156 0.015009333936 9.015009333936 3 7504 7504 22512 168930048
253	717751 80 201 123156 0.015009333936 9.015009333936 3 0 0 0 0
264	717831 80 201 123156 0.015009333936 9.015009333936 3 0 0 0 0
274	717911 89 376 123335 0.028957442478 9.028957442478 3 7504 7504 22512 168930048
275	718000 89 376 123335 0.028957442478 9.028957442478 3 7504 7504 22512 168930048
277	718089 80 376 123335 0.028957442478 9.028957442478 3 0 0 0 0
288	718169 80 376 123335 0.028957442478 9.028957442478 3 0 0 0 0
298	718249 89 888 123846 0.057552872477 9.057552872477 3 7504 7504 22512 168930048
299	718338 89 888 123846 0.057552872477 9.057552872477 3 7504 7504 22512 168930048
301	718427 80 888 123846 0.057552872477 9.057552872477 3 0 0 0 0
312	718507 80 888 123846 0.057552872477 9.057552872477 3 0 0 0 0
322	718587 86 907 123864 0.05802467078 9.05802467078 3 7504 7504 22512 168930048
323	718673 86 907 123864 0.05802467078 9.05802467078 3 7504 7504 22512 168930048
325	718759 77 907 123864 0.05802467078 9.05802467078 3 0 0 0 0
336	718836 77 907 123864 0.05802467078 9.05802467078 3 0 0 0 0
346	718913 87 1359 124315 0.07979170742 9.07979170742 3 7504 7504 22512 168930048
347	719000 87 1359 124315 0.07979170742 9.07979170742 3 7504 7504 22512 168930048
349	719087 78 1359 124315 0.07979170742 9.07979170742 3 0 0 0 0
360	719165 78 1359 124315 0.07979170742 9.07979170742 3 0 0 0 0
