file 6947546 1589562359                                         
version 2
run CAIN-23-20200515-14:01:05-16364
attr configname CAIN
attr datetime 20200515-14:01:05
attr dist 200
attr experiment CAIN
attr inifile omnetpp.ini
attr iterationvars "$numUe=20, $pwr=-50, $dist=200, $mob=\"./movements/RWPRPGM-0.0.movements\""
attr iterationvars2 "$numUe=20, $pwr=-50, $dist=200, $mob=\"./movements/RWPRPGM-0.0.movements\", $repetition=3"
attr measurement "$numUe=20, $pwr=-50, $dist=200, $mob=\"./movements/RWPRPGM-0.0.movements\""
attr mob "\"./movements/RWPRPGM-0.0.movements\""
attr network lte.simulations.networks.CAIN
attr numUe 20
attr processid 16364
attr pwr -50
attr repetition 3
attr replication #3
attr resultdir results
attr runnumber 23
attr seedset 3
param **.**.amcMode "\"AUTO\""
param **.amcMode "\"D2D\""
param **.cainNetwork true
param **.channelControl.alpha 1.0
param **.channelControl.carrierFrequency 2100e+6Hz
param **.channelControl.pMax 10W
param **.d2dCqi 7
param **.deployer.numRbDl 50
param **.deployer.numRbUl 50
param **.distThresh ${dist=200}
param **.fbDelay 1
param **.feedbackComputation "xmldoc(\"config_channel.xml\")"
param **.mobility.constraintAreaMaxX 1000m
param **.mobility.constraintAreaMaxY 1000m
param **.mobility.constraintAreaMaxZ 0m
param **.mobility.constraintAreaMinX 0m
param **.mobility.constraintAreaMinY 0m
param **.mobility.constraintAreaMinZ 0m
param **.nic.phy.channelModel "xmldoc(\"config_channel.xml\")"
param **.numBands 50
param **.pwrThresh "${pwr= -50}"
param **.qtdThresh 3
param **.rbAllocationType "\"localized\""
param **.routingRecorder.enabled false
param **.tcpApp[*].tClose -1s
param **.ueD2DTx[*].mobility.changeAngleBy "normal(0deg, 30deg)"
param **.ueD2DTx[*].mobility.changeInterval "normal(5s, 0.1s)"
param **.ueD2DTx[*].mobility.nodeId -1
param **.ueD2DTx[*].mobility.speed "normal(2mps, 0.01mps)"
param **.ueD2DTx[*].mobility.traceFile "${mob=\"./movements/RWP-0.0.movements\",\"./movements/RWP-0.5.movements\",\"./movements/RPGM-0.0.movements\",\"./movements/RPGM-0.5.movements\",\"./movements/RWPRPGM-0.0.movements\",\"./movements/RWPRPGM-0.5.movements\"}"
param **.ueD2DTx[*].mobilityType "\"BonnMotionMobility\""
param **.usePreconfiguredTxParams false
param *.eNodeB*.numX2Apps 1
param *.eNodeB*.x2App[*].server.localPort "5000 + ancestorIndex(1)"
param *.eNodeB.d2dCapable false
param *.eNodeB.mobility.initFromDisplayString false
param *.eNodeB.mobility.initialX 300m
param *.eNodeB.mobility.initialY 300m
param *.eNodeB.nic.phy.enableD2DCqiReporting true
param *.eNodeB.txPower 19952.62315mw
param *.eNodeB.x2App[0].client.connectAddress "\"eNodeB1%x2ppp0\""
param *.eNodeB1.d2dCapable true
param *.eNodeB1.mobility.initFromDisplayString false
param *.eNodeB1.mobility.initialX 700m
param *.eNodeB1.mobility.initialY 300m
param *.eNodeB1.nic.phy.enableD2DCqiReporting true
param *.eNodeB1.txPower 19952.62315mw
param *.eNodeB1.x2App[0].client.connectAddress "\"eNodeB%x2ppp0\""
param *.extCell[*].bandAllocationType "\"FULL_ALLOC\""
param *.extCell[*].bandUtilization 0.5
param *.extCell[*].txDirection "\"ANISOTROPIC\""
param *.extCell[*].txPower 20
param *.extCell[0].position_x 100m
param *.extCell[0].position_y 600m
param *.extCell[0].txAngle 315
param *.extCell[1].position_x 600m
param *.extCell[1].position_y 600m
param *.extCell[1].txAngle 225
param *.numExtCells 2
param *.numUeCell 0
param *.numUeD2DRx 1
param *.numUeD2DTx 1
param *.ue*.macCellId 1
param *.ue*.masterId 1
param *.ue*.mobility.initFromDisplayString false
param *.ue*[0].macCellId 1
param *.ue*[0].masterId 1
param *.ue*[0].mobility.initFromDisplayString false
param *.ueD2D*.numTcpApps 1
param *.ueD2D*[*].d2dCapable true
param *.ueD2D*[0].d2dCapable false
param *.ueD2D*[0].numTcpApps 1
param *.ueD2DRx[0].mobility.initialX 310m
param *.ueD2DRx[0].mobility.initialY 350m
param *.ueD2DRx[0].tcpApp[*].localPort 1000
param *.ueD2DRx[0].tcpApp[*].typename "\"TCPSinkApp\""
param *.ueD2DTx*.nic.d2dPeerAddresses "\"ueD2DTx[1]\""
param *.ueD2DTx*.tcpApp[*].connectAddress "\"ueD2DTx[0]\""
param *.ueD2DTx*.tcpApp[*].localAddress "\"ueD2DTx\""
param *.ueD2DTx*.tcpApp[*].localPort 1000
param *.ueD2DTx*.tcpApp[*].sendBytes 1GiB
param *.ueD2DTx*.tcpApp[*].typename "\"TCPSessionApp\""
param *.ueD2DTx*.tcpApp[0].active true
param *.ueD2DTx*.tcpApp[0].connectPort 1000
param *.ueD2DTx*.tcpApp[0].tOpen uniform(0.010s,0.1s)
param *.ueD2DTx*.tcpApp[0].tSend uniform(0.15s,0.5s)
param *.ueD2DTx[0].mobility.initialX 290m
param *.ueD2DTx[0].mobility.initialY 350m
param *.ueD2DTx[0].tcpApp[*].localPort 1000
param *.ueD2DTx[0].tcpApp[*].sendBytes 1GiB
param *.ueD2DTx[0].tcpApp[*].typename "\"TCPSessionApp\""
param *.ueD2DTx[0].tcpApp[0].active true
param *.ueD2DTx[0].tcpApp[0].connectAddress "\"ueD2DRx[0]\""
param *.ueD2DTx[0].tcpApp[0].connectPort 1000
param *.ueD2DTx[0].tcpApp[0].localAddress "\"ueD2DTx[0]\""
param *.ueD2DTx[0].tcpApp[0].tOpen uniform(0.010s,0.1s)
param *.ueD2DTx[0].tcpApp[0].tSend uniform(0.15s,0.5s)

vector 8  CAIN.server.ppp[0].queue  queueLength:vector  ETV
attr interpolationmode  sample-hold
attr title  "queue length, vector"
vector 9  CAIN.server.ppp[0].ppp  txState:vector  ETV
attr interpolationmode  sample-hold
attr title  "tx state, vector"
vector 24  CAIN.router.ppp[0].queue  queueLength:vector  ETV
attr interpolationmode  sample-hold
attr title  "queue length, vector"
vector 25  CAIN.router.ppp[0].ppp  txState:vector  ETV
attr interpolationmode  sample-hold
attr title  "tx state, vector"
vector 35  CAIN.router.ppp[1].queue  queueLength:vector  ETV
attr interpolationmode  sample-hold
attr title  "queue length, vector"
vector 36  CAIN.router.ppp[1].ppp  txState:vector  ETV
attr interpolationmode  sample-hold
attr title  "tx state, vector"
vector 56  CAIN.pgw.ppp[0].queue  queueLength:vector  ETV
attr interpolationmode  sample-hold
attr title  "queue length, vector"
vector 57  CAIN.pgw.ppp[0].ppp  txState:vector  ETV
attr interpolationmode  sample-hold
attr title  "tx state, vector"
vector 67  CAIN.pgw.ppp[1].queue  queueLength:vector  ETV
attr interpolationmode  sample-hold
attr title  "queue length, vector"
vector 68  CAIN.pgw.ppp[1].ppp  txState:vector  ETV
attr interpolationmode  sample-hold
attr title  "tx state, vector"
vector 78  CAIN.pgw.pppInterface.queue  queueLength:vector  ETV
attr interpolationmode  sample-hold
attr title  "queue length, vector"
vector 79  CAIN.pgw.pppInterface.ppp  txState:vector  ETV
attr interpolationmode  sample-hold
attr title  "tx state, vector"
vector 120  CAIN.eNodeB.pppIf.queue  queueLength:vector  ETV
attr interpolationmode  sample-hold
attr title  "queue length, vector"
vector 121  CAIN.eNodeB.pppIf.ppp  txState:vector  ETV
attr interpolationmode  sample-hold
attr title  "tx state, vector"
vector 131  CAIN.eNodeB.x2ppp[0].queue  queueLength:vector  ETV
attr interpolationmode  sample-hold
attr title  "queue length, vector"
vector 132  CAIN.eNodeB.x2ppp[0].ppp  txState:vector  ETV
attr interpolationmode  sample-hold
attr title  "tx state, vector"
vector 178  CAIN.eNodeB1.pppIf.queue  queueLength:vector  ETV
attr interpolationmode  sample-hold
attr title  "queue length, vector"
vector 179  CAIN.eNodeB1.pppIf.ppp  txState:vector  ETV
attr interpolationmode  sample-hold
attr title  "tx state, vector"
vector 189  CAIN.eNodeB1.x2ppp[0].queue  queueLength:vector  ETV
attr interpolationmode  sample-hold
attr title  "queue length, vector"
vector 190  CAIN.eNodeB1.x2ppp[0].ppp  txState:vector  ETV
attr interpolationmode  sample-hold
attr title  "tx state, vector"
vector 231  CAIN.ueD2DTx[0].nic.phy  servingCell:vector  ETV
attr source  servingCell
attr title  "ID of the serving eNodeB for the UE, vector"
attr unit  ""
vector 263  CAIN.ueD2DTx[1].nic.phy  servingCell:vector  ETV
attr source  servingCell
attr title  "ID of the serving eNodeB for the UE, vector"
attr unit  ""
vector 295  CAIN.ueD2DTx[2].nic.phy  servingCell:vector  ETV
attr source  servingCell
attr title  "ID of the serving eNodeB for the UE, vector"
attr unit  ""
vector 327  CAIN.ueD2DTx[3].nic.phy  servingCell:vector  ETV
attr source  servingCell
attr title  "ID of the serving eNodeB for the UE, vector"
attr unit  ""
vector 359  CAIN.ueD2DTx[4].nic.phy  servingCell:vector  ETV
attr source  servingCell
attr title  "ID of the serving eNodeB for the UE, vector"
attr unit  ""
vector 391  CAIN.ueD2DTx[5].nic.phy  servingCell:vector  ETV
attr source  servingCell
attr title  "ID of the serving eNodeB for the UE, vector"
attr unit  ""
vector 423  CAIN.ueD2DTx[6].nic.phy  servingCell:vector  ETV
attr source  servingCell
attr title  "ID of the serving eNodeB for the UE, vector"
attr unit  ""
vector 455  CAIN.ueD2DTx[7].nic.phy  servingCell:vector  ETV
attr source  servingCell
attr title  "ID of the serving eNodeB for the UE, vector"
attr unit  ""
vector 487  CAIN.ueD2DTx[8].nic.phy  servingCell:vector  ETV
attr source  servingCell
attr title  "ID of the serving eNodeB for the UE, vector"
attr unit  ""
vector 519  CAIN.ueD2DTx[9].nic.phy  servingCell:vector  ETV
attr source  servingCell
attr title  "ID of the serving eNodeB for the UE, vector"
attr unit  ""
vector 551  CAIN.ueD2DTx[10].nic.phy  servingCell:vector  ETV
attr source  servingCell
attr title  "ID of the serving eNodeB for the UE, vector"
attr unit  ""
vector 583  CAIN.ueD2DTx[11].nic.phy  servingCell:vector  ETV
attr source  servingCell
attr title  "ID of the serving eNodeB for the UE, vector"
attr unit  ""
vector 615  CAIN.ueD2DTx[12].nic.phy  servingCell:vector  ETV
attr source  servingCell
attr title  "ID of the serving eNodeB for the UE, vector"
attr unit  ""
vector 647  CAIN.ueD2DTx[13].nic.phy  servingCell:vector  ETV
attr source  servingCell
attr title  "ID of the serving eNodeB for the UE, vector"
attr unit  ""
vector 679  CAIN.ueD2DTx[14].nic.phy  servingCell:vector  ETV
attr source  servingCell
attr title  "ID of the serving eNodeB for the UE, vector"
attr unit  ""
vector 711  CAIN.ueD2DTx[15].nic.phy  servingCell:vector  ETV
attr source  servingCell
attr title  "ID of the serving eNodeB for the UE, vector"
attr unit  ""
vector 743  CAIN.ueD2DTx[16].nic.phy  servingCell:vector  ETV
attr source  servingCell
attr title  "ID of the serving eNodeB for the UE, vector"
attr unit  ""
vector 775  CAIN.ueD2DTx[17].nic.phy  servingCell:vector  ETV
attr source  servingCell
attr title  "ID of the serving eNodeB for the UE, vector"
attr unit  ""
vector 807  CAIN.ueD2DTx[18].nic.phy  servingCell:vector  ETV
attr source  servingCell
attr title  "ID of the serving eNodeB for the UE, vector"
attr unit  ""
vector 839  CAIN.ueD2DTx[19].nic.phy  servingCell:vector  ETV
attr source  servingCell
attr title  "ID of the serving eNodeB for the UE, vector"
attr unit  ""
vector 863  CAIN.eNodeB.sctp  "Throughput of Association 3"  ETV
vector 885  CAIN.eNodeB1.sctp  "Throughput of Association 4"  ETV
vector 907  CAIN.eNodeB.sctp  "Throughput of Association 1"  ETV
vector 927  CAIN.eNodeB.sctp  "Fast Recovery State 1:10.0.5.2"  ETV
vector 956  CAIN.eNodeB1.sctp  "Throughput of Association 2"  ETV
vector 976  CAIN.eNodeB1.sctp  "Fast Recovery State 2:10.0.5.1"  ETV
vector 128  CAIN.eNodeB.x2ppp[0].queue  rcvdPk:vector(packetBytes)  ETV
attr interpolationmode  none
attr title  "received packets, vector(packetBytes)"
vector 130  CAIN.eNodeB.x2ppp[0].queue  queueingTime:vector  ETV
attr interpolationmode  none
attr title  "queueing time, vector"
vector 186  CAIN.eNodeB1.x2ppp[0].queue  rcvdPk:vector(packetBytes)  ETV
attr interpolationmode  none
attr title  "received packets, vector(packetBytes)"
vector 188  CAIN.eNodeB1.x2ppp[0].queue  queueingTime:vector  ETV
attr interpolationmode  none
attr title  "queueing time, vector"
vector 137  CAIN.eNodeB.x2ppp[0].ppp  rcvdPkFromHL:vector(packetBytes)  ETV
attr interpolationmode  none
attr source  packetReceivedFromUpper
attr title  "packets received from higher layer, vector(packetBytes)"
vector 133  CAIN.eNodeB.x2ppp[0].ppp  txPk:vector(packetBytes)  ETV
attr interpolationmode  none
attr source  packetSentToLower
attr title  "packets transmitted, vector(packetBytes)"
vector 195  CAIN.eNodeB1.x2ppp[0].ppp  rcvdPkFromHL:vector(packetBytes)  ETV
attr interpolationmode  none
attr source  packetReceivedFromUpper
attr title  "packets received from higher layer, vector(packetBytes)"
vector 191  CAIN.eNodeB1.x2ppp[0].ppp  txPk:vector(packetBytes)  ETV
attr interpolationmode  none
attr source  packetSentToLower
attr title  "packets transmitted, vector(packetBytes)"
vector 192  CAIN.eNodeB1.x2ppp[0].ppp  rxPkOk:vector(packetBytes)  ETV
attr interpolationmode  none
attr source  rxPkOk
attr title  "packets received OK, vector(packetBytes)"
vector 196  CAIN.eNodeB1.x2ppp[0].ppp  passedUpPk:vector(packetBytes)  ETV
attr interpolationmode  none
attr source  packetSentToUpper
attr title  "packets passed to higher layer, vector(packetBytes)"
vector 134  CAIN.eNodeB.x2ppp[0].ppp  rxPkOk:vector(packetBytes)  ETV
attr interpolationmode  none
attr source  rxPkOk
attr title  "packets received OK, vector(packetBytes)"
vector 138  CAIN.eNodeB.x2ppp[0].ppp  passedUpPk:vector(packetBytes)  ETV
attr interpolationmode  none
attr source  packetSentToUpper
attr title  "packets passed to higher layer, vector(packetBytes)"
vector 1005  CAIN.eNodeB1.sctp  "Throughput of Association 4"  ETV
vector 882  CAIN.eNodeB1.sctp  "Peer Rwnd 4"  ETV
vector 1025  CAIN.eNodeB1.sctp  "Fast Recovery State 5:10.0.4.1"  ETV
vector 1052  CAIN.eNodeB1.sctp  "Fast Recovery State 5:10.0.2.2"  ETV
vector 1079  CAIN.eNodeB1.sctp  "Fast Recovery State 5:10.0.5.1"  ETV
vector 1108  CAIN.eNodeB.sctp  "Throughput of Association 3"  ETV
vector 860  CAIN.eNodeB.sctp  "Peer Rwnd 3"  ETV
vector 1128  CAIN.eNodeB.sctp  "Fast Recovery State 6:10.0.4.2"  ETV
vector 1155  CAIN.eNodeB.sctp  "Fast Recovery State 6:10.0.3.2"  ETV
vector 1182  CAIN.eNodeB.sctp  "Fast Recovery State 6:10.0.5.2"  ETV
vector 904  CAIN.eNodeB.sctp  "Peer Rwnd 1"  ETV
vector 1209  CAIN.eNodeB.sctp  "Fast Recovery State 1:10.0.4.2"  ETV
vector 1236  CAIN.eNodeB.sctp  "Fast Recovery State 1:10.0.3.2"  ETV
vector 953  CAIN.eNodeB1.sctp  "Peer Rwnd 2"  ETV
vector 1263  CAIN.eNodeB1.sctp  "Fast Recovery State 2:10.0.4.1"  ETV
vector 1290  CAIN.eNodeB1.sctp  "Fast Recovery State 2:10.0.2.2"  ETV
vector 1035  CAIN.eNodeB1.sctp  "Slow Start Threshold 5:10.0.2.2"  ETV
vector 1036  CAIN.eNodeB1.sctp  "Congestion Window 5:10.0.2.2"  ETV
vector 1037  CAIN.eNodeB1.sctp  "Bandwidth 5:10.0.2.2"  ETV
vector 1040  CAIN.eNodeB1.sctp  "HB Sent 5:10.0.2.2"  ETV
vector 1033  CAIN.eNodeB1.sctp  "RTO 5:10.0.2.2"  ETV
vector 1008  CAIN.eNodeB1.sctp  "Slow Start Threshold 5:10.0.4.1"  ETV
vector 1009  CAIN.eNodeB1.sctp  "Congestion Window 5:10.0.4.1"  ETV
vector 1010  CAIN.eNodeB1.sctp  "Bandwidth 5:10.0.4.1"  ETV
vector 1013  CAIN.eNodeB1.sctp  "HB Sent 5:10.0.4.1"  ETV
vector 1006  CAIN.eNodeB1.sctp  "RTO 5:10.0.4.1"  ETV
vector 1062  CAIN.eNodeB1.sctp  "Slow Start Threshold 5:10.0.5.1"  ETV
vector 1063  CAIN.eNodeB1.sctp  "Congestion Window 5:10.0.5.1"  ETV
vector 1064  CAIN.eNodeB1.sctp  "Bandwidth 5:10.0.5.1"  ETV
vector 1060  CAIN.eNodeB1.sctp  "RTO 5:10.0.5.1"  ETV
vector 1138  CAIN.eNodeB.sctp  "Slow Start Threshold 6:10.0.3.2"  ETV
vector 1139  CAIN.eNodeB.sctp  "Congestion Window 6:10.0.3.2"  ETV
vector 1140  CAIN.eNodeB.sctp  "Bandwidth 6:10.0.3.2"  ETV
vector 1143  CAIN.eNodeB.sctp  "HB Sent 6:10.0.3.2"  ETV
vector 1136  CAIN.eNodeB.sctp  "RTO 6:10.0.3.2"  ETV
vector 1111  CAIN.eNodeB.sctp  "Slow Start Threshold 6:10.0.4.2"  ETV
vector 1112  CAIN.eNodeB.sctp  "Congestion Window 6:10.0.4.2"  ETV
vector 1113  CAIN.eNodeB.sctp  "Bandwidth 6:10.0.4.2"  ETV
vector 1116  CAIN.eNodeB.sctp  "HB Sent 6:10.0.4.2"  ETV
vector 1109  CAIN.eNodeB.sctp  "RTO 6:10.0.4.2"  ETV
vector 1165  CAIN.eNodeB.sctp  "Slow Start Threshold 6:10.0.5.2"  ETV
vector 1166  CAIN.eNodeB.sctp  "Congestion Window 6:10.0.5.2"  ETV
vector 1167  CAIN.eNodeB.sctp  "Bandwidth 6:10.0.5.2"  ETV
vector 1163  CAIN.eNodeB.sctp  "RTO 6:10.0.5.2"  ETV
vector 916  CAIN.eNodeB.sctp  "HB ACK Sent 1:10.0.5.2"  ETV
vector 917  CAIN.eNodeB.sctp  "HB Received 1:10.0.5.2"  ETV
vector 965  CAIN.eNodeB1.sctp  "HB ACK Sent 2:10.0.5.1"  ETV
vector 966  CAIN.eNodeB1.sctp  "HB Received 2:10.0.5.1"  ETV
vector 1219  CAIN.eNodeB.sctp  "Slow Start Threshold 1:10.0.3.2"  ETV
vector 1220  CAIN.eNodeB.sctp  "Congestion Window 1:10.0.3.2"  ETV
vector 1221  CAIN.eNodeB.sctp  "Bandwidth 1:10.0.3.2"  ETV
vector 1224  CAIN.eNodeB.sctp  "HB Sent 1:10.0.3.2"  ETV
vector 1217  CAIN.eNodeB.sctp  "RTO 1:10.0.3.2"  ETV
vector 1192  CAIN.eNodeB.sctp  "Slow Start Threshold 1:10.0.4.2"  ETV
vector 1193  CAIN.eNodeB.sctp  "Congestion Window 1:10.0.4.2"  ETV
vector 1194  CAIN.eNodeB.sctp  "Bandwidth 1:10.0.4.2"  ETV
vector 1197  CAIN.eNodeB.sctp  "HB Sent 1:10.0.4.2"  ETV
vector 1190  CAIN.eNodeB.sctp  "RTO 1:10.0.4.2"  ETV
vector 910  CAIN.eNodeB.sctp  "Slow Start Threshold 1:10.0.5.2"  ETV
vector 911  CAIN.eNodeB.sctp  "Congestion Window 1:10.0.5.2"  ETV
vector 912  CAIN.eNodeB.sctp  "Bandwidth 1:10.0.5.2"  ETV
vector 908  CAIN.eNodeB.sctp  "RTO 1:10.0.5.2"  ETV
vector 1273  CAIN.eNodeB1.sctp  "Slow Start Threshold 2:10.0.2.2"  ETV
vector 1274  CAIN.eNodeB1.sctp  "Congestion Window 2:10.0.2.2"  ETV
vector 1275  CAIN.eNodeB1.sctp  "Bandwidth 2:10.0.2.2"  ETV
vector 1278  CAIN.eNodeB1.sctp  "HB Sent 2:10.0.2.2"  ETV
vector 1271  CAIN.eNodeB1.sctp  "RTO 2:10.0.2.2"  ETV
vector 1246  CAIN.eNodeB1.sctp  "Slow Start Threshold 2:10.0.4.1"  ETV
vector 1247  CAIN.eNodeB1.sctp  "Congestion Window 2:10.0.4.1"  ETV
vector 1248  CAIN.eNodeB1.sctp  "Bandwidth 2:10.0.4.1"  ETV
vector 1251  CAIN.eNodeB1.sctp  "HB Sent 2:10.0.4.1"  ETV
vector 1244  CAIN.eNodeB1.sctp  "RTO 2:10.0.4.1"  ETV
vector 959  CAIN.eNodeB1.sctp  "Slow Start Threshold 2:10.0.5.1"  ETV
vector 960  CAIN.eNodeB1.sctp  "Congestion Window 2:10.0.5.1"  ETV
vector 961  CAIN.eNodeB1.sctp  "Bandwidth 2:10.0.5.1"  ETV
vector 957  CAIN.eNodeB1.sctp  "RTO 2:10.0.5.1"  ETV
vector 1173  CAIN.eNodeB.sctp  "HB ACK Received 6:10.0.5.2"  ETV
vector 1164  CAIN.eNodeB.sctp  "RTT 6:10.0.5.2"  ETV
vector 1070  CAIN.eNodeB1.sctp  "HB ACK Received 5:10.0.5.1"  ETV
vector 1061  CAIN.eNodeB1.sctp  "RTT 5:10.0.5.1"  ETV
vector 1171  CAIN.eNodeB.sctp  "HB ACK Sent 6:10.0.5.2"  ETV
vector 1172  CAIN.eNodeB.sctp  "HB Received 6:10.0.5.2"  ETV
vector 1068  CAIN.eNodeB1.sctp  "HB ACK Sent 5:10.0.5.1"  ETV
vector 1069  CAIN.eNodeB1.sctp  "HB Received 5:10.0.5.1"  ETV
vector 967  CAIN.eNodeB1.sctp  "HB ACK Received 2:10.0.5.1"  ETV
vector 958  CAIN.eNodeB1.sctp  "RTT 2:10.0.5.1"  ETV
vector 918  CAIN.eNodeB.sctp  "HB ACK Received 1:10.0.5.2"  ETV
vector 909  CAIN.eNodeB.sctp  "RTT 1:10.0.5.2"  ETV
vector 96  CAIN.eNodeB.nic.mac  receivedPacketFromLowerLayer:vector(packetBytes)  ETV
attr interpolationmode  none
attr source  receivedPacketFromLowerLayer
vector 1305  CAIN.eNodeB.sctp  "SendQueue of Association 6"  ETV
vector 1168  CAIN.eNodeB.sctp  "TSN Sent 6:10.0.5.2"  ETV
vector 1175  CAIN.eNodeB.sctp  "Outstanding Bytes 6:10.0.5.2"  ETV
vector 848  CAIN.eNodeB.sctp  "Outstanding Bytes 3:Total"  ETV
vector 1174  CAIN.eNodeB.sctp  "Queued Sent Bytes 6:10.0.5.2"  ETV
vector 847  CAIN.eNodeB.sctp  "Queued Sent Bytes 3:Total"  ETV
vector 963  CAIN.eNodeB1.sctp  "TSN Received 2:10.0.5.1"  ETV
vector 939  CAIN.eNodeB1.sctp  "Queued Received Bytes 2:Total"  ETV
vector 935  CAIN.eNodeB1.sctp  "Advertised Receiver Window 2"  ETV
vector 944  CAIN.eNodeB1.sctp  "Number of Total Gap Blocks Stored 2"  ETV
vector 945  CAIN.eNodeB1.sctp  "Number of Revokable Gap Blocks Stored 2"  ETV
vector 946  CAIN.eNodeB1.sctp  "Number of Non-Revokable Gap Blocks Stored 2"  ETV
vector 947  CAIN.eNodeB1.sctp  "Number of Duplicate TSNs Stored 2"  ETV
vector 951  CAIN.eNodeB1.sctp  "Length of SACK Sent 2"  ETV
vector 948  CAIN.eNodeB1.sctp  "Number of Revokable Gap Blocks Sent 2"  ETV
vector 949  CAIN.eNodeB1.sctp  "Number of Non-Revokable Gap Blocks Sent 2"  ETV
vector 950  CAIN.eNodeB1.sctp  "Number of Duplicate TSNs Sent 2"  ETV
vector 955  CAIN.eNodeB1.sctp  "End to End Delay of Association 2"  ETV
vector 199  CAIN.eNodeB1.x2App[0].client  rcvdPk:vector(packetBytes)  ETV
attr interpolationmode  none
attr source  rcvdPk
attr title  "packets received, vector(packetBytes)"
vector 1304  CAIN.eNodeB.sctp  "Number of Gap Blocks in Last SACK of Association 6"  ETV
vector 849  CAIN.eNodeB.sctp  "Number of Revokable Gap Blocks in SACK 3"  ETV
vector 850  CAIN.eNodeB.sctp  "Number of Non-Revokable Gap Blocks in SACK 3"  ETV
vector 1185  CAIN.eNodeB.sctp  "TSN Acked CumAck 6:10.0.5.2"  ETV
vector 1151  CAIN.eNodeB.sctp  "Number of Gap Acked Chunks in Last SACK 6:10.0.3.2"  ETV
vector 1152  CAIN.eNodeB.sctp  "Number of Non-Revokable Gap Acked Chunks in Last SACK 6:10.0.3.2"  ETV
vector 1153  CAIN.eNodeB.sctp  "Number of Gap Missed Chunks in Last SACK 6:10.0.3.2"  ETV
vector 1124  CAIN.eNodeB.sctp  "Number of Gap Acked Chunks in Last SACK 6:10.0.4.2"  ETV
vector 1125  CAIN.eNodeB.sctp  "Number of Non-Revokable Gap Acked Chunks in Last SACK 6:10.0.4.2"  ETV
vector 1126  CAIN.eNodeB.sctp  "Number of Gap Missed Chunks in Last SACK 6:10.0.4.2"  ETV
vector 1178  CAIN.eNodeB.sctp  "Number of Gap Acked Chunks in Last SACK 6:10.0.5.2"  ETV
vector 1179  CAIN.eNodeB.sctp  "Number of Non-Revokable Gap Acked Chunks in Last SACK 6:10.0.5.2"  ETV
vector 1180  CAIN.eNodeB.sctp  "Number of Gap Missed Chunks in Last SACK 6:10.0.5.2"  ETV
vector 859  CAIN.eNodeB.sctp  "Arwnd in Last SACK 3"  ETV
vector 1187  CAIN.eNodeB.sctp  "TSN PseudoCumAck 6:10.0.5.2"  ETV
vector 1188  CAIN.eNodeB.sctp  "TSN RTXPseudoCumAck 6:10.0.5.2"  ETV
vector 1181  CAIN.eNodeB.sctp  "Partial Bytes Acked 6:10.0.5.2"  ETV
vector 1333  CAIN.ueD2DTx[12].tcp  tcpRcvQueueBytes  ETV
vector 1320  CAIN.ueD2DTx[12].tcp  "advertised window"  ETV
vector 1319  CAIN.ueD2DTx[12].tcp  "receive window"  ETV
vector 1322  CAIN.ueD2DTx[12].tcp  "sent ack"  ETV
vector 589  CAIN.ueD2DTx[12].nic.pdcpRrc  receivedPacketFromUpperLayer:vector(packetBytes)  ETV
attr interpolationmode  none
attr source  receivedPacketFromUpperLayer
vector 592  CAIN.ueD2DTx[12].nic.pdcpRrc  sentPacketToLowerLayer:vector(packetBytes)  ETV
attr interpolationmode  none
attr source  sentPacketToLowerLayer
vector 593  CAIN.ueD2DTx[12].nic.mac  receivedPacketFromUpperLayer:vector(packetBytes)  ETV
attr interpolationmode  none
attr source  receivedPacketFromUpperLayer
vector 596  CAIN.ueD2DTx[12].nic.mac  sentPacketToLowerLayer:vector(packetBytes)  ETV
attr interpolationmode  none
attr source  sentPacketToLowerLayer
vector 111  CAIN.eNodeB.nic.mac  racpkt:vector  ETV
attr interpolationmode  none
attr title  "eNB received racpkt message, vector"
vector 112  CAIN.eNodeB.nic.mac  racDistanceSignal:vector  ETV
attr interpolationmode  none
attr title  "Rac distance to enb, vector"
vector 113  CAIN.eNodeB.nic.mac  racServedDevsSignal:vector  ETV
attr interpolationmode  none
attr title  "# of devices served on rac arriavall, vector"
vector 98  CAIN.eNodeB.nic.mac  sentPacketToLowerLayer:vector(packetBytes)  ETV
attr interpolationmode  none
attr source  sentPacketToLowerLayer
vector 594  CAIN.ueD2DTx[12].nic.mac  receivedPacketFromLowerLayer:vector(packetBytes)  ETV
attr interpolationmode  none
attr source  receivedPacketFromLowerLayer
vector 1357  CAIN.ueD2DTx[10].tcp  tcpRcvQueueBytes  ETV
vector 1344  CAIN.ueD2DTx[10].tcp  "advertised window"  ETV
vector 1343  CAIN.ueD2DTx[10].tcp  "receive window"  ETV
vector 1346  CAIN.ueD2DTx[10].tcp  "sent ack"  ETV
vector 525  CAIN.ueD2DTx[10].nic.pdcpRrc  receivedPacketFromUpperLayer:vector(packetBytes)  ETV
attr interpolationmode  none
attr source  receivedPacketFromUpperLayer
vector 528  CAIN.ueD2DTx[10].nic.pdcpRrc  sentPacketToLowerLayer:vector(packetBytes)  ETV
attr interpolationmode  none
attr source  sentPacketToLowerLayer
vector 529  CAIN.ueD2DTx[10].nic.mac  receivedPacketFromUpperLayer:vector(packetBytes)  ETV
attr interpolationmode  none
attr source  receivedPacketFromUpperLayer
vector 539  CAIN.ueD2DTx[10].nic.mac  CainHopMessageSent:vector  ETV
attr interpolationmode  none
attr title  "# of Sent CAIN hop message, vector"
vector 532  CAIN.ueD2DTx[10].nic.mac  sentPacketToLowerLayer:vector(packetBytes)  ETV
attr interpolationmode  none
attr source  sentPacketToLowerLayer
vector 595  CAIN.ueD2DTx[12].nic.mac  sentPacketToUpperLayer:vector(packetBytes)  ETV
attr interpolationmode  none
attr source  sentPacketToUpperLayer
vector 210  CAIN.ueD2DTx[0].nic.mac  receivedPacketFromLowerLayer:vector(packetBytes)  ETV
attr interpolationmode  none
attr source  receivedPacketFromLowerLayer
vector 212  CAIN.ueD2DTx[0].nic.mac  sentPacketToLowerLayer:vector(packetBytes)  ETV
attr interpolationmode  none
attr source  sentPacketToLowerLayer
vector 466  CAIN.ueD2DTx[8].nic.mac  receivedPacketFromLowerLayer:vector(packetBytes)  ETV
attr interpolationmode  none
attr source  receivedPacketFromLowerLayer
vector 468  CAIN.ueD2DTx[8].nic.mac  sentPacketToLowerLayer:vector(packetBytes)  ETV
attr interpolationmode  none
attr source  sentPacketToLowerLayer
vector 1381  CAIN.ueD2DTx[3].tcp  tcpRcvQueueBytes  ETV
vector 1368  CAIN.ueD2DTx[3].tcp  "advertised window"  ETV
vector 1367  CAIN.ueD2DTx[3].tcp  "receive window"  ETV
vector 1370  CAIN.ueD2DTx[3].tcp  "sent ack"  ETV
vector 301  CAIN.ueD2DTx[3].nic.pdcpRrc  receivedPacketFromUpperLayer:vector(packetBytes)  ETV
attr interpolationmode  none
attr source  receivedPacketFromUpperLayer
vector 304  CAIN.ueD2DTx[3].nic.pdcpRrc  sentPacketToLowerLayer:vector(packetBytes)  ETV
attr interpolationmode  none
attr source  sentPacketToLowerLayer
vector 305  CAIN.ueD2DTx[3].nic.mac  receivedPacketFromUpperLayer:vector(packetBytes)  ETV
attr interpolationmode  none
attr source  receivedPacketFromUpperLayer
vector 315  CAIN.ueD2DTx[3].nic.mac  CainHopMessageSent:vector  ETV
attr interpolationmode  none
attr title  "# of Sent CAIN hop message, vector"
vector 308  CAIN.ueD2DTx[3].nic.mac  sentPacketToLowerLayer:vector(packetBytes)  ETV
attr interpolationmode  none
attr source  sentPacketToLowerLayer
vector 106  CAIN.eNodeB.nic.mac  DistanceSignal:vector  ETV
attr interpolationmode  none
attr title  "Distance to enb, vector"
vector 101  CAIN.eNodeB.nic.mac  CainHopMessage:vector  ETV
attr interpolationmode  none
attr title  "eNB received CAIN hop message, vector"
vector 473  CAIN.ueD2DTx[8].nic.mac  DropedHopMessage:vector  ETV
attr interpolationmode  none
attr title  "Droped Hop CAIN message due to RB not available, vector"
vector 1405  CAIN.ueD2DTx[19].tcp  tcpRcvQueueBytes  ETV
vector 1392  CAIN.ueD2DTx[19].tcp  "advertised window"  ETV
vector 1391  CAIN.ueD2DTx[19].tcp  "receive window"  ETV
vector 1394  CAIN.ueD2DTx[19].tcp  "sent ack"  ETV
vector 813  CAIN.ueD2DTx[19].nic.pdcpRrc  receivedPacketFromUpperLayer:vector(packetBytes)  ETV
attr interpolationmode  none
attr source  receivedPacketFromUpperLayer
vector 816  CAIN.ueD2DTx[19].nic.pdcpRrc  sentPacketToLowerLayer:vector(packetBytes)  ETV
attr interpolationmode  none
attr source  sentPacketToLowerLayer
vector 817  CAIN.ueD2DTx[19].nic.mac  receivedPacketFromUpperLayer:vector(packetBytes)  ETV
attr interpolationmode  none
attr source  receivedPacketFromUpperLayer
vector 827  CAIN.ueD2DTx[19].nic.mac  CainHopMessageSent:vector  ETV
attr interpolationmode  none
attr title  "# of Sent CAIN hop message, vector"
vector 820  CAIN.ueD2DTx[19].nic.mac  sentPacketToLowerLayer:vector(packetBytes)  ETV
attr interpolationmode  none
attr source  sentPacketToLowerLayer
vector 338  CAIN.ueD2DTx[4].nic.mac  receivedPacketFromLowerLayer:vector(packetBytes)  ETV
attr interpolationmode  none
attr source  receivedPacketFromLowerLayer
vector 340  CAIN.ueD2DTx[4].nic.mac  sentPacketToLowerLayer:vector(packetBytes)  ETV
attr interpolationmode  none
attr source  sentPacketToLowerLayer
vector 1429  CAIN.ueD2DTx[16].tcp  tcpRcvQueueBytes  ETV
vector 1416  CAIN.ueD2DTx[16].tcp  "advertised window"  ETV
vector 1415  CAIN.ueD2DTx[16].tcp  "receive window"  ETV
vector 1418  CAIN.ueD2DTx[16].tcp  "sent ack"  ETV
vector 717  CAIN.ueD2DTx[16].nic.pdcpRrc  receivedPacketFromUpperLayer:vector(packetBytes)  ETV
attr interpolationmode  none
attr source  receivedPacketFromUpperLayer
vector 720  CAIN.ueD2DTx[16].nic.pdcpRrc  sentPacketToLowerLayer:vector(packetBytes)  ETV
attr interpolationmode  none
attr source  sentPacketToLowerLayer
vector 721  CAIN.ueD2DTx[16].nic.mac  receivedPacketFromUpperLayer:vector(packetBytes)  ETV
attr interpolationmode  none
attr source  receivedPacketFromUpperLayer
vector 731  CAIN.ueD2DTx[16].nic.mac  CainHopMessageSent:vector  ETV
attr interpolationmode  none
attr title  "# of Sent CAIN hop message, vector"
vector 724  CAIN.ueD2DTx[16].nic.mac  sentPacketToLowerLayer:vector(packetBytes)  ETV
attr interpolationmode  none
attr source  sentPacketToLowerLayer
vector 109  CAIN.eNodeB.nic.mac  ServedHopDevs:vector  ETV
attr interpolationmode  none
attr title  "# of devices served on hop forwarding, vector"
vector 1453  CAIN.ueD2DTx[5].tcp  tcpRcvQueueBytes  ETV
vector 1440  CAIN.ueD2DTx[5].tcp  "advertised window"  ETV
vector 1439  CAIN.ueD2DTx[5].tcp  "receive window"  ETV
vector 1442  CAIN.ueD2DTx[5].tcp  "sent ack"  ETV
vector 365  CAIN.ueD2DTx[5].nic.pdcpRrc  receivedPacketFromUpperLayer:vector(packetBytes)  ETV
attr interpolationmode  none
attr source  receivedPacketFromUpperLayer
vector 368  CAIN.ueD2DTx[5].nic.pdcpRrc  sentPacketToLowerLayer:vector(packetBytes)  ETV
attr interpolationmode  none
attr source  sentPacketToLowerLayer
vector 369  CAIN.ueD2DTx[5].nic.mac  receivedPacketFromUpperLayer:vector(packetBytes)  ETV
attr interpolationmode  none
attr source  receivedPacketFromUpperLayer
vector 379  CAIN.ueD2DTx[5].nic.mac  CainHopMessageSent:vector  ETV
attr interpolationmode  none
attr title  "# of Sent CAIN hop message, vector"
vector 372  CAIN.ueD2DTx[5].nic.mac  sentPacketToLowerLayer:vector(packetBytes)  ETV
attr interpolationmode  none
attr source  sentPacketToLowerLayer
vector 1477  CAIN.ueD2DTx[13].tcp  tcpRcvQueueBytes  ETV
vector 1464  CAIN.ueD2DTx[13].tcp  "advertised window"  ETV
vector 1463  CAIN.ueD2DTx[13].tcp  "receive window"  ETV
vector 1466  CAIN.ueD2DTx[13].tcp  "sent ack"  ETV
vector 621  CAIN.ueD2DTx[13].nic.pdcpRrc  receivedPacketFromUpperLayer:vector(packetBytes)  ETV
attr interpolationmode  none
attr source  receivedPacketFromUpperLayer
vector 624  CAIN.ueD2DTx[13].nic.pdcpRrc  sentPacketToLowerLayer:vector(packetBytes)  ETV
attr interpolationmode  none
attr source  sentPacketToLowerLayer
vector 625  CAIN.ueD2DTx[13].nic.mac  receivedPacketFromUpperLayer:vector(packetBytes)  ETV
attr interpolationmode  none
attr source  receivedPacketFromUpperLayer
vector 635  CAIN.ueD2DTx[13].nic.mac  CainHopMessageSent:vector  ETV
attr interpolationmode  none
attr title  "# of Sent CAIN hop message, vector"
vector 628  CAIN.ueD2DTx[13].nic.mac  sentPacketToLowerLayer:vector(packetBytes)  ETV
attr interpolationmode  none
attr source  sentPacketToLowerLayer
vector 1501  CAIN.ueD2DTx[11].tcp  tcpRcvQueueBytes  ETV
vector 1488  CAIN.ueD2DTx[11].tcp  "advertised window"  ETV
vector 1487  CAIN.ueD2DTx[11].tcp  "receive window"  ETV
vector 1490  CAIN.ueD2DTx[11].tcp  "sent ack"  ETV
vector 557  CAIN.ueD2DTx[11].nic.pdcpRrc  receivedPacketFromUpperLayer:vector(packetBytes)  ETV
attr interpolationmode  none
attr source  receivedPacketFromUpperLayer
vector 560  CAIN.ueD2DTx[11].nic.pdcpRrc  sentPacketToLowerLayer:vector(packetBytes)  ETV
attr interpolationmode  none
attr source  sentPacketToLowerLayer
vector 561  CAIN.ueD2DTx[11].nic.mac  receivedPacketFromUpperLayer:vector(packetBytes)  ETV
attr interpolationmode  none
attr source  receivedPacketFromUpperLayer
vector 1525  CAIN.ueD2DTx[8].tcp  tcpRcvQueueBytes  ETV
vector 1512  CAIN.ueD2DTx[8].tcp  "advertised window"  ETV
vector 1511  CAIN.ueD2DTx[8].tcp  "receive window"  ETV
vector 1514  CAIN.ueD2DTx[8].tcp  "sent ack"  ETV
vector 461  CAIN.ueD2DTx[8].nic.pdcpRrc  receivedPacketFromUpperLayer:vector(packetBytes)  ETV
attr interpolationmode  none
attr source  receivedPacketFromUpperLayer
vector 464  CAIN.ueD2DTx[8].nic.pdcpRrc  sentPacketToLowerLayer:vector(packetBytes)  ETV
attr interpolationmode  none
attr source  sentPacketToLowerLayer
vector 465  CAIN.ueD2DTx[8].nic.mac  receivedPacketFromUpperLayer:vector(packetBytes)  ETV
attr interpolationmode  none
attr source  receivedPacketFromUpperLayer
vector 571  CAIN.ueD2DTx[11].nic.mac  CainHopMessageSent:vector  ETV
attr interpolationmode  none
attr title  "# of Sent CAIN hop message, vector"
vector 564  CAIN.ueD2DTx[11].nic.mac  sentPacketToLowerLayer:vector(packetBytes)  ETV
attr interpolationmode  none
attr source  sentPacketToLowerLayer
vector 1549  CAIN.ueD2DTx[14].tcp  tcpRcvQueueBytes  ETV
vector 1536  CAIN.ueD2DTx[14].tcp  "advertised window"  ETV
vector 1535  CAIN.ueD2DTx[14].tcp  "receive window"  ETV
vector 1538  CAIN.ueD2DTx[14].tcp  "sent ack"  ETV
vector 653  CAIN.ueD2DTx[14].nic.pdcpRrc  receivedPacketFromUpperLayer:vector(packetBytes)  ETV
attr interpolationmode  none
attr source  receivedPacketFromUpperLayer
vector 656  CAIN.ueD2DTx[14].nic.pdcpRrc  sentPacketToLowerLayer:vector(packetBytes)  ETV
attr interpolationmode  none
attr source  sentPacketToLowerLayer
vector 657  CAIN.ueD2DTx[14].nic.mac  receivedPacketFromUpperLayer:vector(packetBytes)  ETV
attr interpolationmode  none
attr source  receivedPacketFromUpperLayer
vector 667  CAIN.ueD2DTx[14].nic.mac  CainHopMessageSent:vector  ETV
attr interpolationmode  none
attr title  "# of Sent CAIN hop message, vector"
vector 660  CAIN.ueD2DTx[14].nic.mac  sentPacketToLowerLayer:vector(packetBytes)  ETV
attr interpolationmode  none
attr source  sentPacketToLowerLayer
vector 1301  CAIN.eNodeB1.sctp  "SendQueue of Association 5"  ETV
vector 1065  CAIN.eNodeB1.sctp  "TSN Sent 5:10.0.5.1"  ETV
vector 1072  CAIN.eNodeB1.sctp  "Outstanding Bytes 5:10.0.5.1"  ETV
vector 870  CAIN.eNodeB1.sctp  "Outstanding Bytes 4:Total"  ETV
vector 1071  CAIN.eNodeB1.sctp  "Queued Sent Bytes 5:10.0.5.1"  ETV
vector 869  CAIN.eNodeB1.sctp  "Queued Sent Bytes 4:Total"  ETV
vector 914  CAIN.eNodeB.sctp  "TSN Received 1:10.0.5.2"  ETV
vector 890  CAIN.eNodeB.sctp  "Queued Received Bytes 1:Total"  ETV
vector 886  CAIN.eNodeB.sctp  "Advertised Receiver Window 1"  ETV
vector 895  CAIN.eNodeB.sctp  "Number of Total Gap Blocks Stored 1"  ETV
vector 896  CAIN.eNodeB.sctp  "Number of Revokable Gap Blocks Stored 1"  ETV
vector 897  CAIN.eNodeB.sctp  "Number of Non-Revokable Gap Blocks Stored 1"  ETV
vector 898  CAIN.eNodeB.sctp  "Number of Duplicate TSNs Stored 1"  ETV
vector 902  CAIN.eNodeB.sctp  "Length of SACK Sent 1"  ETV
vector 899  CAIN.eNodeB.sctp  "Number of Revokable Gap Blocks Sent 1"  ETV
vector 900  CAIN.eNodeB.sctp  "Number of Non-Revokable Gap Blocks Sent 1"  ETV
vector 901  CAIN.eNodeB.sctp  "Number of Duplicate TSNs Sent 1"  ETV
vector 906  CAIN.eNodeB.sctp  "End to End Delay of Association 1"  ETV
vector 141  CAIN.eNodeB.x2App[0].client  rcvdPk:vector(packetBytes)  ETV
attr interpolationmode  none
attr source  rcvdPk
attr title  "packets received, vector(packetBytes)"
vector 1300  CAIN.eNodeB1.sctp  "Number of Gap Blocks in Last SACK of Association 5"  ETV
vector 871  CAIN.eNodeB1.sctp  "Number of Revokable Gap Blocks in SACK 4"  ETV
vector 872  CAIN.eNodeB1.sctp  "Number of Non-Revokable Gap Blocks in SACK 4"  ETV
vector 1082  CAIN.eNodeB1.sctp  "TSN Acked CumAck 5:10.0.5.1"  ETV
vector 1048  CAIN.eNodeB1.sctp  "Number of Gap Acked Chunks in Last SACK 5:10.0.2.2"  ETV
vector 1049  CAIN.eNodeB1.sctp  "Number of Non-Revokable Gap Acked Chunks in Last SACK 5:10.0.2.2"  ETV
vector 1050  CAIN.eNodeB1.sctp  "Number of Gap Missed Chunks in Last SACK 5:10.0.2.2"  ETV
vector 1021  CAIN.eNodeB1.sctp  "Number of Gap Acked Chunks in Last SACK 5:10.0.4.1"  ETV
vector 1022  CAIN.eNodeB1.sctp  "Number of Non-Revokable Gap Acked Chunks in Last SACK 5:10.0.4.1"  ETV
vector 1023  CAIN.eNodeB1.sctp  "Number of Gap Missed Chunks in Last SACK 5:10.0.4.1"  ETV
vector 1075  CAIN.eNodeB1.sctp  "Number of Gap Acked Chunks in Last SACK 5:10.0.5.1"  ETV
vector 1076  CAIN.eNodeB1.sctp  "Number of Non-Revokable Gap Acked Chunks in Last SACK 5:10.0.5.1"  ETV
vector 1077  CAIN.eNodeB1.sctp  "Number of Gap Missed Chunks in Last SACK 5:10.0.5.1"  ETV
vector 881  CAIN.eNodeB1.sctp  "Arwnd in Last SACK 4"  ETV
vector 1084  CAIN.eNodeB1.sctp  "TSN PseudoCumAck 5:10.0.5.1"  ETV
vector 1085  CAIN.eNodeB1.sctp  "TSN RTXPseudoCumAck 5:10.0.5.1"  ETV
vector 1078  CAIN.eNodeB1.sctp  "Partial Bytes Acked 5:10.0.5.1"  ETV
vector 1573  CAIN.ueD2DTx[7].tcp  tcpRcvQueueBytes  ETV
vector 1560  CAIN.ueD2DTx[7].tcp  "advertised window"  ETV
vector 1559  CAIN.ueD2DTx[7].tcp  "receive window"  ETV
vector 1562  CAIN.ueD2DTx[7].tcp  "sent ack"  ETV
vector 429  CAIN.ueD2DTx[7].nic.pdcpRrc  receivedPacketFromUpperLayer:vector(packetBytes)  ETV
attr interpolationmode  none
attr source  receivedPacketFromUpperLayer
vector 432  CAIN.ueD2DTx[7].nic.pdcpRrc  sentPacketToLowerLayer:vector(packetBytes)  ETV
attr interpolationmode  none
attr source  sentPacketToLowerLayer
vector 433  CAIN.ueD2DTx[7].nic.mac  receivedPacketFromUpperLayer:vector(packetBytes)  ETV
attr interpolationmode  none
attr source  receivedPacketFromUpperLayer
vector 443  CAIN.ueD2DTx[7].nic.mac  CainHopMessageSent:vector  ETV
attr interpolationmode  none
attr title  "# of Sent CAIN hop message, vector"
vector 436  CAIN.ueD2DTx[7].nic.mac  sentPacketToLowerLayer:vector(packetBytes)  ETV
attr interpolationmode  none
attr source  sentPacketToLowerLayer
vector 1597  CAIN.ueD2DTx[2].tcp  tcpRcvQueueBytes  ETV
vector 1584  CAIN.ueD2DTx[2].tcp  "advertised window"  ETV
vector 1583  CAIN.ueD2DTx[2].tcp  "receive window"  ETV
vector 1586  CAIN.ueD2DTx[2].tcp  "sent ack"  ETV
vector 269  CAIN.ueD2DTx[2].nic.pdcpRrc  receivedPacketFromUpperLayer:vector(packetBytes)  ETV
attr interpolationmode  none
attr source  receivedPacketFromUpperLayer
vector 272  CAIN.ueD2DTx[2].nic.pdcpRrc  sentPacketToLowerLayer:vector(packetBytes)  ETV
attr interpolationmode  none
attr source  sentPacketToLowerLayer
vector 273  CAIN.ueD2DTx[2].nic.mac  receivedPacketFromUpperLayer:vector(packetBytes)  ETV
attr interpolationmode  none
attr source  receivedPacketFromUpperLayer
vector 283  CAIN.ueD2DTx[2].nic.mac  CainHopMessageSent:vector  ETV
attr interpolationmode  none
attr title  "# of Sent CAIN hop message, vector"
vector 276  CAIN.ueD2DTx[2].nic.mac  sentPacketToLowerLayer:vector(packetBytes)  ETV
attr interpolationmode  none
attr source  sentPacketToLowerLayer
vector 154  CAIN.eNodeB1.nic.mac  receivedPacketFromLowerLayer:vector(packetBytes)  ETV
attr interpolationmode  none
attr source  receivedPacketFromLowerLayer
vector 1621  CAIN.ueD2DTx[1].tcp  tcpRcvQueueBytes  ETV
vector 1608  CAIN.ueD2DTx[1].tcp  "advertised window"  ETV
vector 1607  CAIN.ueD2DTx[1].tcp  "receive window"  ETV
vector 1610  CAIN.ueD2DTx[1].tcp  "sent ack"  ETV
vector 237  CAIN.ueD2DTx[1].nic.pdcpRrc  receivedPacketFromUpperLayer:vector(packetBytes)  ETV
attr interpolationmode  none
attr source  receivedPacketFromUpperLayer
vector 240  CAIN.ueD2DTx[1].nic.pdcpRrc  sentPacketToLowerLayer:vector(packetBytes)  ETV
attr interpolationmode  none
attr source  sentPacketToLowerLayer
vector 241  CAIN.ueD2DTx[1].nic.mac  receivedPacketFromUpperLayer:vector(packetBytes)  ETV
attr interpolationmode  none
attr source  receivedPacketFromUpperLayer
vector 250  CAIN.ueD2DTx[1].nic.mac  CainMessageSent:vector  ETV
attr interpolationmode  none
attr title  "# of Sent CAIN message, vector"
vector 244  CAIN.ueD2DTx[1].nic.mac  sentPacketToLowerLayer:vector(packetBytes)  ETV
attr interpolationmode  none
attr source  sentPacketToLowerLayer
vector 306  CAIN.ueD2DTx[3].nic.mac  receivedPacketFromLowerLayer:vector(packetBytes)  ETV
attr interpolationmode  none
attr source  receivedPacketFromLowerLayer
vector 1645  CAIN.ueD2DTx[17].tcp  tcpRcvQueueBytes  ETV
vector 1632  CAIN.ueD2DTx[17].tcp  "advertised window"  ETV
vector 1631  CAIN.ueD2DTx[17].tcp  "receive window"  ETV
vector 1634  CAIN.ueD2DTx[17].tcp  "sent ack"  ETV
vector 749  CAIN.ueD2DTx[17].nic.pdcpRrc  receivedPacketFromUpperLayer:vector(packetBytes)  ETV
attr interpolationmode  none
attr source  receivedPacketFromUpperLayer
vector 752  CAIN.ueD2DTx[17].nic.pdcpRrc  sentPacketToLowerLayer:vector(packetBytes)  ETV
attr interpolationmode  none
attr source  sentPacketToLowerLayer
vector 753  CAIN.ueD2DTx[17].nic.mac  receivedPacketFromUpperLayer:vector(packetBytes)  ETV
attr interpolationmode  none
attr source  receivedPacketFromUpperLayer
vector 1669  CAIN.ueD2DTx[6].tcp  tcpRcvQueueBytes  ETV
vector 1656  CAIN.ueD2DTx[6].tcp  "advertised window"  ETV
vector 1655  CAIN.ueD2DTx[6].tcp  "receive window"  ETV
vector 1658  CAIN.ueD2DTx[6].tcp  "sent ack"  ETV
vector 397  CAIN.ueD2DTx[6].nic.pdcpRrc  receivedPacketFromUpperLayer:vector(packetBytes)  ETV
attr interpolationmode  none
attr source  receivedPacketFromUpperLayer
vector 400  CAIN.ueD2DTx[6].nic.pdcpRrc  sentPacketToLowerLayer:vector(packetBytes)  ETV
attr interpolationmode  none
attr source  sentPacketToLowerLayer
vector 401  CAIN.ueD2DTx[6].nic.mac  receivedPacketFromUpperLayer:vector(packetBytes)  ETV
attr interpolationmode  none
attr source  receivedPacketFromUpperLayer
vector 404  CAIN.ueD2DTx[6].nic.mac  sentPacketToLowerLayer:vector(packetBytes)  ETV
attr interpolationmode  none
attr source  sentPacketToLowerLayer
vector 169  CAIN.eNodeB1.nic.mac  racpkt:vector  ETV
attr interpolationmode  none
attr title  "eNB received racpkt message, vector"
vector 170  CAIN.eNodeB1.nic.mac  racDistanceSignal:vector  ETV
attr interpolationmode  none
attr title  "Rac distance to enb, vector"
vector 171  CAIN.eNodeB1.nic.mac  racServedDevsSignal:vector  ETV
attr interpolationmode  none
attr title  "# of devices served on rac arriavall, vector"
vector 156  CAIN.eNodeB1.nic.mac  sentPacketToLowerLayer:vector(packetBytes)  ETV
attr interpolationmode  none
attr source  sentPacketToLowerLayer
vector 402  CAIN.ueD2DTx[6].nic.mac  receivedPacketFromLowerLayer:vector(packetBytes)  ETV
attr interpolationmode  none
attr source  receivedPacketFromLowerLayer
vector 1693  CAIN.ueD2DTx[9].tcp  tcpRcvQueueBytes  ETV
vector 1680  CAIN.ueD2DTx[9].tcp  "advertised window"  ETV
vector 1679  CAIN.ueD2DTx[9].tcp  "receive window"  ETV
vector 1682  CAIN.ueD2DTx[9].tcp  "sent ack"  ETV
vector 493  CAIN.ueD2DTx[9].nic.pdcpRrc  receivedPacketFromUpperLayer:vector(packetBytes)  ETV
attr interpolationmode  none
attr source  receivedPacketFromUpperLayer
vector 496  CAIN.ueD2DTx[9].nic.pdcpRrc  sentPacketToLowerLayer:vector(packetBytes)  ETV
attr interpolationmode  none
attr source  sentPacketToLowerLayer
vector 497  CAIN.ueD2DTx[9].nic.mac  receivedPacketFromUpperLayer:vector(packetBytes)  ETV
attr interpolationmode  none
attr source  receivedPacketFromUpperLayer
vector 507  CAIN.ueD2DTx[9].nic.mac  CainHopMessageSent:vector  ETV
attr interpolationmode  none
attr title  "# of Sent CAIN hop message, vector"
vector 500  CAIN.ueD2DTx[9].nic.mac  sentPacketToLowerLayer:vector(packetBytes)  ETV
attr interpolationmode  none
attr source  sentPacketToLowerLayer
vector 1717  CAIN.ueD2DTx[4].tcp  tcpRcvQueueBytes  ETV
vector 1704  CAIN.ueD2DTx[4].tcp  "advertised window"  ETV
vector 1703  CAIN.ueD2DTx[4].tcp  "receive window"  ETV
vector 1706  CAIN.ueD2DTx[4].tcp  "sent ack"  ETV
vector 333  CAIN.ueD2DTx[4].nic.pdcpRrc  receivedPacketFromUpperLayer:vector(packetBytes)  ETV
attr interpolationmode  none
attr source  receivedPacketFromUpperLayer
vector 336  CAIN.ueD2DTx[4].nic.pdcpRrc  sentPacketToLowerLayer:vector(packetBytes)  ETV
attr interpolationmode  none
attr source  sentPacketToLowerLayer
vector 337  CAIN.ueD2DTx[4].nic.mac  receivedPacketFromUpperLayer:vector(packetBytes)  ETV
attr interpolationmode  none
attr source  receivedPacketFromUpperLayer
vector 346  CAIN.ueD2DTx[4].nic.mac  CainMessageSent:vector  ETV
attr interpolationmode  none
attr title  "# of Sent CAIN message, vector"
vector 690  CAIN.ueD2DTx[15].nic.mac  receivedPacketFromLowerLayer:vector(packetBytes)  ETV
attr interpolationmode  none
attr source  receivedPacketFromLowerLayer
vector 692  CAIN.ueD2DTx[15].nic.mac  sentPacketToLowerLayer:vector(packetBytes)  ETV
attr interpolationmode  none
attr source  sentPacketToLowerLayer
vector 100  CAIN.eNodeB.nic.mac  CainMessage:vector  ETV
attr interpolationmode  none
attr title  "eNB received CAIN message, vector"
vector 697  CAIN.ueD2DTx[15].nic.mac  DropedHopMessage:vector  ETV
attr interpolationmode  none
attr title  "Droped Hop CAIN message due to RB not available, vector"
vector 108  CAIN.eNodeB.nic.mac  ServedDevs:vector  ETV
attr interpolationmode  none
attr title  "# of devices served on cain forwarding, vector"
vector 1741  CAIN.ueD2DTx[0].tcp  tcpRcvQueueBytes  ETV
vector 1728  CAIN.ueD2DTx[0].tcp  "advertised window"  ETV
vector 1727  CAIN.ueD2DTx[0].tcp  "receive window"  ETV
vector 1730  CAIN.ueD2DTx[0].tcp  "sent ack"  ETV
vector 205  CAIN.ueD2DTx[0].nic.pdcpRrc  receivedPacketFromUpperLayer:vector(packetBytes)  ETV
attr interpolationmode  none
attr source  receivedPacketFromUpperLayer
vector 208  CAIN.ueD2DTx[0].nic.pdcpRrc  sentPacketToLowerLayer:vector(packetBytes)  ETV
attr interpolationmode  none
attr source  sentPacketToLowerLayer
vector 209  CAIN.ueD2DTx[0].nic.mac  receivedPacketFromUpperLayer:vector(packetBytes)  ETV
attr interpolationmode  none
attr source  receivedPacketFromUpperLayer
vector 1765  CAIN.ueD2DTx[15].tcp  tcpRcvQueueBytes  ETV
vector 1752  CAIN.ueD2DTx[15].tcp  "advertised window"  ETV
vector 1751  CAIN.ueD2DTx[15].tcp  "receive window"  ETV
vector 1754  CAIN.ueD2DTx[15].tcp  "sent ack"  ETV
vector 685  CAIN.ueD2DTx[15].nic.pdcpRrc  receivedPacketFromUpperLayer:vector(packetBytes)  ETV
attr interpolationmode  none
attr source  receivedPacketFromUpperLayer
vector 688  CAIN.ueD2DTx[15].nic.pdcpRrc  sentPacketToLowerLayer:vector(packetBytes)  ETV
attr interpolationmode  none
attr source  sentPacketToLowerLayer
vector 689  CAIN.ueD2DTx[15].nic.mac  receivedPacketFromUpperLayer:vector(packetBytes)  ETV
attr interpolationmode  none
attr source  receivedPacketFromUpperLayer
vector 1789  CAIN.ueD2DTx[18].tcp  tcpRcvQueueBytes  ETV
vector 1776  CAIN.ueD2DTx[18].tcp  "advertised window"  ETV
vector 1775  CAIN.ueD2DTx[18].tcp  "receive window"  ETV
vector 1778  CAIN.ueD2DTx[18].tcp  "sent ack"  ETV
vector 781  CAIN.ueD2DTx[18].nic.pdcpRrc  receivedPacketFromUpperLayer:vector(packetBytes)  ETV
attr interpolationmode  none
attr source  receivedPacketFromUpperLayer
vector 784  CAIN.ueD2DTx[18].nic.pdcpRrc  sentPacketToLowerLayer:vector(packetBytes)  ETV
attr interpolationmode  none
attr source  sentPacketToLowerLayer
vector 785  CAIN.ueD2DTx[18].nic.mac  receivedPacketFromUpperLayer:vector(packetBytes)  ETV
attr interpolationmode  none
attr source  receivedPacketFromUpperLayer
vector 795  CAIN.ueD2DTx[18].nic.mac  CainHopMessageSent:vector  ETV
attr interpolationmode  none
attr title  "# of Sent CAIN hop message, vector"
vector 788  CAIN.ueD2DTx[18].nic.mac  sentPacketToLowerLayer:vector(packetBytes)  ETV
attr interpolationmode  none
attr source  sentPacketToLowerLayer
vector 691  CAIN.ueD2DTx[15].nic.mac  sentPacketToUpperLayer:vector(packetBytes)  ETV
attr interpolationmode  none
attr source  sentPacketToUpperLayer
vector 538  CAIN.ueD2DTx[10].nic.mac  CainMessageSent:vector  ETV
attr interpolationmode  none
attr title  "# of Sent CAIN message, vector"
vector 274  CAIN.ueD2DTx[2].nic.mac  receivedPacketFromLowerLayer:vector(packetBytes)  ETV
attr interpolationmode  none
attr source  receivedPacketFromLowerLayer
vector 173  CAIN.eNodeB1.nic.phy  averageCqiUlvect:vector  ETV
attr source  averageCqiUlvect
attr title  "Average Cqi reported in UL, vector"
attr unit  cqi
vector 730  CAIN.ueD2DTx[16].nic.mac  CainMessageSent:vector  ETV
attr interpolationmode  none
attr title  "# of Sent CAIN message, vector"
vector 530  CAIN.ueD2DTx[10].nic.mac  receivedPacketFromLowerLayer:vector(packetBytes)  ETV
attr interpolationmode  none
attr source  receivedPacketFromLowerLayer
vector 474  CAIN.ueD2DTx[8].nic.mac  CainMessageSent:vector  ETV
attr interpolationmode  none
attr title  "# of Sent CAIN message, vector"
vector 722  CAIN.ueD2DTx[16].nic.mac  receivedPacketFromLowerLayer:vector(packetBytes)  ETV
attr interpolationmode  none
attr source  receivedPacketFromLowerLayer
vector 434  CAIN.ueD2DTx[7].nic.mac  receivedPacketFromLowerLayer:vector(packetBytes)  ETV
attr interpolationmode  none
attr source  receivedPacketFromLowerLayer
vector 763  CAIN.ueD2DTx[17].nic.mac  CainHopMessageSent:vector  ETV
attr interpolationmode  none
attr title  "# of Sent CAIN hop message, vector"
vector 756  CAIN.ueD2DTx[17].nic.mac  sentPacketToLowerLayer:vector(packetBytes)  ETV
attr interpolationmode  none
attr source  sentPacketToLowerLayer
vector 251  CAIN.ueD2DTx[1].nic.mac  CainHopMessageSent:vector  ETV
attr interpolationmode  none
attr title  "# of Sent CAIN hop message, vector"
vector 403  CAIN.ueD2DTx[6].nic.mac  sentPacketToUpperLayer:vector(packetBytes)  ETV
attr interpolationmode  none
attr source  sentPacketToUpperLayer
vector 442  CAIN.ueD2DTx[7].nic.mac  CainMessageSent:vector  ETV
attr interpolationmode  none
attr title  "# of Sent CAIN message, vector"
vector 282  CAIN.ueD2DTx[2].nic.mac  CainMessageSent:vector  ETV
attr interpolationmode  none
attr title  "# of Sent CAIN message, vector"
vector 475  CAIN.ueD2DTx[8].nic.mac  CainHopMessageSent:vector  ETV
attr interpolationmode  none
attr title  "# of Sent CAIN hop message, vector"
vector 498  CAIN.ueD2DTx[9].nic.mac  receivedPacketFromLowerLayer:vector(packetBytes)  ETV
attr interpolationmode  none
attr source  receivedPacketFromLowerLayer
vector 219  CAIN.ueD2DTx[0].nic.mac  CainHopMessageSent:vector  ETV
attr interpolationmode  none
attr title  "# of Sent CAIN hop message, vector"
vector 242  CAIN.ueD2DTx[1].nic.mac  receivedPacketFromLowerLayer:vector(packetBytes)  ETV
attr interpolationmode  none
attr source  receivedPacketFromLowerLayer
1108	49937 24 150 150 0.0000001228 0.0000001228 1 0 0 0 0
1219	49961 28 235 235 0.0000006304 0.0000006304 1 65535 65535 65535 4294836225
1220	49989 27 235 235 0.0000006304 0.0000006304 1 8940 8940 8940 79923600
1221	50016 29 235 235 0.0000006304 0.0000006304 1 0.3725 0.3725 0.3725 0.13875625
1217	50045 24 235 235 0.0000006304 0.0000006304 1 3 3 3 9
1224	50069 24 235 235 0.0000006304 0.0000006304 1 1 1 1 1
1236	50093 24 163 163 0.0000003096 0.0000003096 1 0 0 0 0
1192	50117 28 235 235 0.0000006304 0.0000006304 1 65535 65535 65535 4294836225
1193	50145 27 235 235 0.0000006304 0.0000006304 1 8940 8940 8940 79923600
1194	50172 29 235 235 0.0000006304 0.0000006304 1 0.3725 0.3725 0.3725 0.13875625
1190	50201 24 235 235 0.0000006304 0.0000006304 1 3 3 3 9
1197	50225 24 235 235 0.0000006304 0.0000006304 1 1 1 1 1
1209	50249 24 163 163 0.0000003096 0.0000003096 1 0 0 0 0
910	50273 27 235 235 0.0000006304 0.0000006304 1 65535 65535 65535 4294836225
911	50300 26 235 235 0.0000006304 0.0000006304 1 8940 8940 8940 79923600
912	50326 28 235 235 0.0000006304 0.0000006304 1 0.3725 0.3725 0.3725 0.13875625
908	50354 46 235 302 0.0000006304 0.0000008564 2 1 3 4 10
909	50400 30 302 302 0.0000008564 0.0000008564 1 2.26e-07 2.26e-07 2.26e-07 5.1076e-14
914	50430 3514 3413 14600 0.0570000972 0.2570024476 126 2000 2125 259875 536158875
917	53944 44 207 221 0.000000552 0.000000596 2 1 2 3 5
916	53988 44 207 221 0.000000552 0.000000596 2 1 2 3 5
918	54032 46 302 308 0.0000008564 0.0000009004 2 1 2 3 5
927	54078 12 131 131 0 0 1 0 0 0 0
886	54090 86 3413 25153 0.0570000972 0.4570024476 3 65533 65535 196603 12884246539
890	54176 3213 3413 25153 0.0570000972 0.4570024476 129 0 224 254 50860
895	57389 74 3413 25153 0.0570000972 0.4570024476 3 0 0 0 0
896	57463 74 3413 25153 0.0570000972 0.4570024476 3 0 0 0 0
897	57537 74 3413 25153 0.0570000972 0.4570024476 3 0 0 0 0
898	57611 74 3413 25153 0.0570000972 0.4570024476 3 0 0 0 0
899	57685 74 3413 25153 0.0570000972 0.4570024476 3 0 0 0 0
900	57759 74 3413 25153 0.0570000972 0.4570024476 3 0 0 0 0
901	57833 74 3413 25153 0.0570000972 0.4570024476 3 0 0 0 0
902	57907 77 3413 25153 0.0570000972 0.4570024476 3 16 16 48 768
904	57984 27 163 163 0.0000003096 0.0000003096 1 65535 65535 65535 4294836225
906	58011 4255 3416 14713 0.0570000972 0.2570024476 126 9.72e-08 1.8732e-06 0.0002136552 3.9409108704e-10
907	62266 12 131 131 0 0 1 0 0 0 0
1138	62278 27 178 178 0.000000458 0.000000458 1 65535 65535 65535 4294836225
1139	62305 26 178 178 0.000000458 0.000000458 1 8940 8940 8940 79923600
1140	62331 28 178 178 0.000000458 0.000000458 1 0.3725 0.3725 0.3725 0.13875625
1136	62359 23 178 178 0.000000458 0.000000458 1 3 3 3 9
1143	62382 23 178 178 0.000000458 0.000000458 1 1 1 1 1
1151	62405 76 657 22654 0.0070001912 0.4070025416 3 0 0 0 0
1152	62481 76 657 22654 0.0070001912 0.4070025416 3 0 0 0 0
1153	62557 76 657 22654 0.0070001912 0.4070025416 3 0 0 0 0
1155	62633 24 150 150 0.0000001228 0.0000001228 1 0 0 0 0
1111	62657 27 178 178 0.000000458 0.000000458 1 65535 65535 65535 4294836225
1112	62684 26 178 178 0.000000458 0.000000458 1 8940 8940 8940 79923600
1113	62710 28 178 178 0.000000458 0.000000458 1 0.3725 0.3725 0.3725 0.13875625
1109	62738 23 178 178 0.000000458 0.000000458 1 3 3 3 9
1116	62761 23 178 178 0.000000458 0.000000458 1 1 1 1 1
1124	62784 76 657 22654 0.0070001912 0.4070025416 3 0 0 0 0
1125	62860 76 657 22654 0.0070001912 0.4070025416 3 0 0 0 0
1126	62936 76 657 22654 0.0070001912 0.4070025416 3 0 0 0 0
1128	63012 24 150 150 0.0000001228 0.0000001228 1 0 0 0 0
1165	63036 57 178 62565 0.000000458 1.2070005744 2 65535 65535 131070 8589672450
1166	63093 55 178 62565 0.000000458 1.2070005744 2 8940 8940 17880 159847200
1167	63148 58 178 62565 0.000000458 1.2070005744 2 0.3725 23.84 24.2125 568.48435625
1163	63206 123 178 22654 0.000000458 0.4070025416 5 1 3 7 13
1164	63329 138 255 22654 0.0000006744 0.4070025416 4 1.912e-07 0.2000019672 0.400002758 0.0800009401641
1168	63467 3619 601 11560 0.007 0.2070005744 126 2000 2125 259875 536158875
1172	67086 48 273 287 0.0000007624 0.0000008064 2 1 2 3 5
1171	67134 48 273 287 0.0000007624 0.0000008064 2 1 2 3 5
1173	67182 48 255 265 0.0000006744 0.0000007184 2 1 2 3 5
1174	67230 6872 601 22654 0.007 0.4070025416 252 0 224 25428 3752504
1175	74102 6872 601 22654 0.007 0.4070025416 252 0 224 25428 3752504
1178	80974 76 657 22654 0.0070001912 0.4070025416 3 0 0 0 0
1179	81050 76 657 22654 0.0070001912 0.4070025416 3 0 0 0 0
1180	81126 76 657 22654 0.0070001912 0.4070025416 3 0 0 0 0
1181	81202 76 657 22654 0.0070001912 0.4070025416 3 0 0 0 0
1182	81278 24 150 150 0.0000001228 0.0000001228 1 0 0 0 0
1185	81302 85 657 22654 0.0070001912 0.4070025416 3 2000 2125 6138 12567794
1187	81387 76 657 22654 0.0070001912 0.4070025416 3 0 0 0 0
1188	81463 76 657 22654 0.0070001912 0.4070025416 3 0 0 0 0
1304	81539 76 657 22654 0.0070001912 0.4070025416 3 0 0 0 0
1305	81615 5718 601 11560 0.007 0.2070005744 252 0 112 12714 938126
848	87333 6620 601 22654 0.007 0.4070025416 252 0 224 25428 3752504
847	93953 6620 601 22654 0.007 0.4070025416 252 0 224 25428 3752504
849	100573 73 657 22654 0.0070001912 0.4070025416 3 0 0 0 0
850	100646 73 657 22654 0.0070001912 0.4070025416 3 0 0 0 0
859	100719 85 657 22654 0.0070001912 0.4070025416 3 65533 65535 196603 12884246539
860	100804 112 150 22654 0.0000001228 0.4070025416 4 65533 65535 262138 17179082764
863	100916 12 123 123 0 0 1 0 0 0 0
1005	100928 24 149 149 0.0000001228 0.0000001228 1 0 0 0 0
1273	100952 28 236 236 0.0000006304 0.0000006304 1 65535 65535 65535 4294836225
1274	100980 27 236 236 0.0000006304 0.0000006304 1 8940 8940 8940 79923600
1275	101007 29 236 236 0.0000006304 0.0000006304 1 0.3725 0.3725 0.3725 0.13875625
1271	101036 24 236 236 0.0000006304 0.0000006304 1 3 3 3 9
1278	101060 24 236 236 0.0000006304 0.0000006304 1 1 1 1 1
1290	101084 24 164 164 0.0000003096 0.0000003096 1 0 0 0 0
1246	101108 28 236 236 0.0000006304 0.0000006304 1 65535 65535 65535 4294836225
1247	101136 27 236 236 0.0000006304 0.0000006304 1 8940 8940 8940 79923600
1248	101163 29 236 236 0.0000006304 0.0000006304 1 0.3725 0.3725 0.3725 0.13875625
1244	101192 24 236 236 0.0000006304 0.0000006304 1 3 3 3 9
1251	101216 24 236 236 0.0000006304 0.0000006304 1 1 1 1 1
1263	101240 24 164 164 0.0000003096 0.0000003096 1 0 0 0 0
959	101264 27 236 236 0.0000006304 0.0000006304 1 65535 65535 65535 4294836225
960	101291 26 236 236 0.0000006304 0.0000006304 1 8940 8940 8940 79923600
961	101317 28 236 236 0.0000006304 0.0000006304 1 0.3725 0.3725 0.3725 0.13875625
957	101345 46 236 301 0.0000006304 0.0000008564 2 1 3 4 10
958	101391 30 301 301 0.0000008564 0.0000008564 1 2.26e-07 2.26e-07 2.26e-07 5.1076e-14
963	101421 3500 645 11567 0.0070000972 0.2070024476 126 2000 2125 259875 536158875
966	104921 44 208 222 0.000000552 0.000000596 2 1 2 3 5
965	104965 44 208 222 0.000000552 0.000000596 2 1 2 3 5
967	105009 46 301 307 0.0000008564 0.0000009004 2 1 2 3 5
976	105055 12 132 132 0 0 1 0 0 0 0
935	105067 85 645 22647 0.0070000972 0.4070024476 3 65533 65535 196603 12884246539
939	105152 3198 645 22647 0.0070000972 0.4070024476 129 0 224 254 50860
944	108350 73 645 22647 0.0070000972 0.4070024476 3 0 0 0 0
945	108423 73 645 22647 0.0070000972 0.4070024476 3 0 0 0 0
946	108496 73 645 22647 0.0070000972 0.4070024476 3 0 0 0 0
947	108569 73 645 22647 0.0070000972 0.4070024476 3 0 0 0 0
948	108642 73 645 22647 0.0070000972 0.4070024476 3 0 0 0 0
949	108715 73 645 22647 0.0070000972 0.4070024476 3 0 0 0 0
950	108788 73 645 22647 0.0070000972 0.4070024476 3 0 0 0 0
951	108861 76 645 22647 0.0070000972 0.4070024476 3 16 16 48 768
953	108937 27 164 164 0.0000003096 0.0000003096 1 65535 65535 65535 4294836225
955	108964 4241 648 11680 0.0070000972 0.2070024476 126 9.72e-08 1.8732e-06 0.0002136552 3.9409108704e-10
956	113205 12 132 132 0 0 1 0 0 0 0
1035	113217 27 177 177 0.000000458 0.000000458 1 65535 65535 65535 4294836225
1036	113244 26 177 177 0.000000458 0.000000458 1 8940 8940 8940 79923600
1037	113270 28 177 177 0.000000458 0.000000458 1 0.3725 0.3725 0.3725 0.13875625
1033	113298 23 177 177 0.000000458 0.000000458 1 3 3 3 9
1040	113321 23 177 177 0.000000458 0.000000458 1 1 1 1 1
1048	113344 77 3425 25160 0.0570001912 0.4570025416 3 0 0 0 0
1049	113421 77 3425 25160 0.0570001912 0.4570025416 3 0 0 0 0
1050	113498 77 3425 25160 0.0570001912 0.4570025416 3 0 0 0 0
1052	113575 24 149 149 0.0000001228 0.0000001228 1 0 0 0 0
1008	113599 27 177 177 0.000000458 0.000000458 1 65535 65535 65535 4294836225
1009	113626 26 177 177 0.000000458 0.000000458 1 8940 8940 8940 79923600
1010	113652 28 177 177 0.000000458 0.000000458 1 0.3725 0.3725 0.3725 0.13875625
1006	113680 23 177 177 0.000000458 0.000000458 1 3 3 3 9
1013	113703 23 177 177 0.000000458 0.000000458 1 1 1 1 1
1021	113726 77 3425 25160 0.0570001912 0.4570025416 3 0 0 0 0
1022	113803 77 3425 25160 0.0570001912 0.4570025416 3 0 0 0 0
1023	113880 77 3425 25160 0.0570001912 0.4570025416 3 0 0 0 0
1025	113957 24 149 149 0.0000001228 0.0000001228 1 0 0 0 0
1062	113981 57 177 65070 0.000000458 1.2570005744 2 65535 65535 131070 8589672450
1063	114038 55 177 65070 0.000000458 1.2570005744 2 8940 8940 17880 159847200
1064	114093 58 177 65070 0.000000458 1.2570005744 2 0.3725 23.84 24.2125 568.48435625
1060	114151 124 177 25160 0.000000458 0.4570025416 5 1 3 7 13
1061	114275 139 256 25160 0.0000006744 0.4570025416 4 1.912e-07 0.2000019672 0.400002758 0.0800009401641
1065	114414 3633 3341 14593 0.057 0.2570005744 126 2000 2125 259875 536158875
1069	118047 48 274 288 0.0000007624 0.0000008064 2 1 2 3 5
1068	118095 48 274 288 0.0000007624 0.0000008064 2 1 2 3 5
1070	118143 48 256 266 0.0000006744 0.0000007184 2 1 2 3 5
1071	118191 6887 3341 25160 0.057 0.4570025416 252 0 224 25428 3752504
1072	125078 6887 3341 25160 0.057 0.4570025416 252 0 224 25428 3752504
1075	131965 77 3425 25160 0.0570001912 0.4570025416 3 0 0 0 0
1076	132042 77 3425 25160 0.0570001912 0.4570025416 3 0 0 0 0
1077	132119 77 3425 25160 0.0570001912 0.4570025416 3 0 0 0 0
1078	132196 77 3425 25160 0.0570001912 0.4570025416 3 0 0 0 0
1079	132273 24 149 149 0.0000001228 0.0000001228 1 0 0 0 0
1082	132297 86 3425 25160 0.0570001912 0.4570025416 3 2000 2125 6138 12567794
1084	132383 77 3425 25160 0.0570001912 0.4570025416 3 0 0 0 0
1085	132460 77 3425 25160 0.0570001912 0.4570025416 3 0 0 0 0
1300	132537 77 3425 25160 0.0570001912 0.4570025416 3 0 0 0 0
1301	132614 5760 3341 14593 0.057 0.2570005744 252 0 112 12714 938126
870	138374 6635 3341 25160 0.057 0.4570025416 252 0 224 25428 3752504
869	145009 6635 3341 25160 0.057 0.4570025416 252 0 224 25428 3752504
871	151644 74 3425 25160 0.0570001912 0.4570025416 3 0 0 0 0
872	151718 74 3425 25160 0.0570001912 0.4570025416 3 0 0 0 0
881	151792 86 3425 25160 0.0570001912 0.4570025416 3 65533 65535 196603 12884246539
882	151878 113 149 25160 0.0000001228 0.4570025416 4 65533 65535 262138 17179082764
885	151991 12 128 128 0 0 1 0 0 0 0
8	152003 8 0 0 0 0 1 0 0 0 0
9	152011 8 0 0 0 0 1 0 0 0 0
24	152019 9 0 0 0 0 1 0 0 0 0
25	152028 9 0 0 0 0 1 0 0 0 0
35	152037 9 0 0 0 0 1 0 0 0 0
36	152046 9 0 0 0 0 1 0 0 0 0
56	152055 9 0 0 0 0 1 0 0 0 0
57	152064 9 0 0 0 0 1 0 0 0 0
67	152073 9 0 0 0 0 1 0 0 0 0
68	152082 9 0 0 0 0 1 0 0 0 0
78	152091 9 0 0 0 0 1 0 0 0 0
79	152100 9 0 0 0 0 1 0 0 0 0
96	152109 506473 378 676152 0.002 10 28752 0 0 0 0
98	658582 167502 1294 676147 0.021 10 9464 0 0 0 0
100	826084 42167 4686 676008 0.078 9.998 1985 1 1985 1971105 2609085985
101	868251 158556 1555 676147 0.026 10 7365 1 7365 27125295 133194240215
106	1026807 385664 1555 676152 0.026 10 18679 397 669 10668553 6410628437
108	1412471 36207 4827 676150 0.08 10 1985 2 7 10919 70413
109	1448678 144547 1947 676152 0.034 10 7344 6 17 121133 2004357
111	1593225 413182 1294 676152 0.021 10 18736 1 18736 175528216 2192522946056
112	2006407 386816 1294 676152 0.021 10 18736 113 564 7756032 3570308178
113	2393223 349344 1294 676152 0.021 10 18736 0 0 0 0
120	2742567 10 0 0 0 0 1 0 0 0 0
121	2742577 10 0 0 0 0 1 0 0 0 0
128	2742587 421 139 25155 0 0.4570024476 18 36 2272 3544 5324000
130	2743008 438 139 25155 0 0.4570024476 18 0 8.8e-08 3.088e-07 1.946112e-14
131	2743446 280 0 258 0 0.0000007124 13 0 2 10 14
132	2743726 828 0 25157 0 0.4570024916 37 0 1 18 18
133	2744554 423 141 25156 0 0.4570024476 18 43 2279 3670 5374498
134	2744977 442 146 22652 0.0000001228 0.4070025416 18 43 2279 3670 5374498
137	2745419 423 141 25156 0 0.4570024476 18 36 2272 3544 5324000
138	2745842 442 146 22652 0.0000001228 0.4070025416 18 36 2272 3544 5324000
141	2746284 3136 3418 14936 0.0570000972 0.2570024476 126 2 2 252 504
154	2749420 574937 3732 676123 0.062 10 30808 0 0 0 0
156	3324357 217613 4281 676123 0.071 10 11508 0 0 0 0
169	3541970 84301 4281 676123 0.071 10 3906 1 3906 7630371 19872029541
170	3626271 81502 4281 676123 0.071 10 3906 137 634 896442 221401106
171	3707773 73690 4281 676123 0.071 10 3906 0 0 0 0
173	3781463 70377 153590 676072 3.031 9.999 3704 2 10 9399 25499
178	3851840 10 0 0 0 0 1 0 0 0 0
179	3851850 10 0 0 0 0 1 0 0 0 0
186	3851860 422 140 22649 0 0.4070024476 18 36 2272 3544 5324000
188	3852282 439 140 22649 0 0.4070024476 18 0 8.8e-08 3.088e-07 1.946112e-14
189	3852721 280 0 257 0 0.0000007124 13 0 2 10 14
190	3853001 830 0 22651 0 0.4070024916 37 0 1 18 18
191	3853831 424 142 22650 0 0.4070024476 18 43 2279 3670 5374498
192	3854255 441 145 25158 0.0000001228 0.4570025416 18 43 2279 3670 5374498
195	3854696 424 142 22650 0 0.4070024476 18 36 2272 3544 5324000
196	3855120 441 145 25158 0.0000001228 0.4570025416 18 36 2272 3544 5324000
199	3855561 3122 650 11903 0.0070000972 0.2070024476 126 2 2 252 504
205	3858683 82 4958 605095 0.08215464002 9.08215464002 3 44 44 132 5808
208	3858765 82 4958 605095 0.08215464002 9.08215464002 3 45 45 135 6075
209	3858847 82 4961 605098 0.08215464002 9.08215464002 3 45 45 135 6075
210	3858929 70182 1408 675880 0.024 9.997 3737 0 0 0 0
212	3929111 61882 1408 675914 0.024 9.998 3273 0 0 0 0
219	3990993 9510 158306 675914 3.098 9.998 458 1 458 105111 32128929
231	4000503 163 0 6377 0 0.105 10 1 2 19 37
237	4000666 85 3989 603774 0.066956260251 9.066956260251 3 44 44 132 5808
240	4000751 85 3989 603774 0.066956260251 9.066956260251 3 45 45 135 6075
241	4000836 85 3992 603777 0.066956260251 9.066956260251 3 45 45 135 6075
242	4000921 4370 158458 676061 3.099 9.999 230 0 0 0 0
244	4005291 30740 4017 676061 0.067 9.999 1618 0 0 0 0
250	4036031 4783 4017 675853 0.067 9.997 233 1 233 27261 4243629
251	4040814 24303 156237 675458 3.072 9.992 1155 1 1155 667590 514266830
263	4065117 163 0 6378 0 0.105 10 1 2 19 37
269	4065280 85 3646 603316 0.060918334927 9.060918334927 3 44 44 132 5808
272	4065365 85 3646 603316 0.060918334927 9.060918334927 3 45 45 135 6075
273	4065450 85 3649 603319 0.060918334927 9.060918334927 3 45 45 135 6075
274	4065535 130941 153181 676067 3.024 9.999 6946 0 0 0 0
276	4196476 122159 3674 676118 0.061 10 6484 0 0 0 0
282	4318635 9594 157339 675403 3.086 9.991 462 1 462 106953 32977175
283	4328229 17 3674 3674 0.061 0.061 1 1 1 1 1
295	4328246 163 0 6379 0 0.105 10 1 2 19 37
301	4328409 85 1504 600552 0.025952952534 9.025952952534 3 44 44 132 5808
304	4328494 85 1504 600552 0.025952952534 9.025952952534 3 45 45 135 6075
305	4328579 85 1507 600555 0.025952952534 9.025952952534 3 45 45 135 6075
306	4328664 69900 4117 676138 0.068 10 3720 0 0 0 0
308	4398564 61162 1513 676138 0.026 10 3261 0 0 0 0
315	4459726 9769 1513 675405 0.026 9.991 471 1 471 111156 34940036
327	4469495 163 0 6380 0 0.105 10 1 2 19 37
333	4469658 82 4565 604553 0.07505697578 9.07505697578 3 44 44 132 5808
336	4469740 82 4565 604553 0.07505697578 9.07505697578 3 45 45 135 6075
337	4469822 82 4568 604556 0.07505697578 9.07505697578 3 45 45 135 6075
338	4469904 73793 1709 676135 0.03 10 3986 0 0 0 0
340	4543697 111110 1709 676135 0.03 10 5971 0 0 0 0
346	4654807 42165 4575 675782 0.076 9.996 1985 1 1985 1971105 2609085985
359	4696972 10 0 0 0 0 1 1 1 1 1
365	4696982 85 2144 601488 0.037729873816 9.037729873816 3 44 44 132 5808
368	4697067 85 2144 601488 0.037729873816 9.037729873816 3 45 45 135 6075
369	4697152 85 2147 601491 0.037729873816 9.037729873816 3 45 45 135 6075
372	4697237 26535 2155 675920 0.038 9.998 1397 0 0 0 0
379	4723772 29619 2155 675920 0.038 9.998 1397 1 1397 976503 909775295
391	4753391 163 0 6381 0 0.105 10 1 2 19 37
397	4753554 85 4223 604052 0.069116189484 9.069116189484 3 44 44 132 5808
400	4753639 85 4223 604052 0.069116189484 9.069116189484 3 45 45 135 6075
401	4753724 3772 4226 676034 0.069116189484 9.999 197 0 45 196 6562
402	4757496 168991 4335 676141 0.072 10 8949 0 0 0 0
403	4926487 3686 156381 676030 3.074 9.999 194 0 0 0 0
404	4930173 165213 4235 676141 0.07 10 8756 0 0 0 0
423	5095386 163 0 6382 0 0.105 10 1 2 19 37
429	5095549 85 3545 603156 0.058808041334 9.058808041334 3 44 44 132 5808
432	5095634 85 3545 603156 0.058808041334 9.058808041334 3 45 45 135 6075
433	5095719 85 3548 603159 0.058808041334 9.058808041334 3 45 45 135 6075
434	5095804 161953 155475 676064 3.061 9.999 8551 0 0 0 0
436	5257757 153192 3558 676064 0.059 9.999 8090 0 0 0 0
442	5410949 9594 156386 674482 3.074 9.979 462 1 462 106953 32977175
443	5420543 17 3558 3558 0.059 0.059 1 1 1 1 1
455	5420560 163 0 6383 0 0.105 10 1 2 19 37
461	5420723 82 3040 602737 0.05394782705 9.05394782705 3 44 44 132 5808
464	5420805 82 3040 602737 0.05394782705 9.05394782705 3 45 45 135 6075
465	5420887 82 3043 602740 0.05394782705 9.05394782705 3 45 45 135 6075
466	5420969 42339 1498 675808 0.025 9.996 2254 0 0 0 0
468	5463308 68463 1498 676037 0.025 9.999 3627 0 0 0 0
473	5531771 276 1588 3222 0.027 0.055 16 1 16 136 1496
474	5532047 4932 154958 674484 3.054 9.979 240 1 240 28920 4636840
475	5536979 24193 157593 676037 3.089 9.999 1150 1 1150 661825 507619775
487	5561172 163 0 6384 0 0.105 10 1 2 19 37
493	5561335 85 4472 604477 0.074373740533 9.074373740533 3 44 44 132 5808
496	5561420 85 4472 604477 0.074373740533 9.074373740533 3 45 45 135 6075
497	5561505 85 4475 604480 0.074373740533 9.074373740533 3 45 45 135 6075
498	5561590 21332 157707 676126 3.09 10 1150 0 0 0 0
500	5582922 57556 4543 676126 0.075 10 3136 0 0 0 0
507	5640478 41075 4543 676104 0.075 10 1986 1 1986 1973091 2613030181
519	5681553 10 0 0 0 0 1 1 1 1 1
525	5681563 85 1327 600310 0.022555459228 9.022555459228 3 44 44 132 5808
528	5681648 85 1327 600310 0.022555459228 9.022555459228 3 45 45 135 6075
529	5681733 85 1330 600313 0.022555459228 9.022555459228 3 45 45 135 6075
530	5681818 26134 154081 676132 3.039 10 1403 0 0 0 0
532	5707952 52777 1343 676132 0.023 10 2806 0 0 0 0
538	5760729 29605 153103 675926 3.023 9.998 1396 1 1396 975106 907823686
539	5790334 119 1343 3001 0.023 0.053 7 1 7 28 140
551	5790453 163 0 6385 0 0.105 10 1 2 19 37
557	5790616 85 3032 602730 0.053440309435 9.053440309435 3 44 44 132 5808
560	5790701 85 3032 602730 0.053440309435 9.053440309435 3 45 45 135 6075
561	5790786 85 3035 602733 0.053440309435 9.053440309435 3 45 45 135 6075
564	5790871 26427 3078 676041 0.054 9.999 1391 0 0 0 0
571	5817298 29493 3078 676041 0.054 9.999 1391 1 1391 968136 898107496
583	5846791 163 0 6386 0 0.105 10 1 2 19 37
589	5846954 85 1222 600082 0.019660798032 9.019660798032 3 44 44 132 5808
592	5847039 85 1222 600082 0.019660798032 9.019660798032 3 45 45 135 6075
593	5847124 944 1225 606061 0.019660798032 9.094 50 0 45 360 7200
594	5848068 226119 1322 676082 0.022 9.999 12033 0 0 0 0
595	6074187 859 1392 606057 0.024 9.094 47 0 0 0 0
596	6075046 225234 1240 676082 0.02 9.999 11986 0 0 0 0
615	6300280 10 0 0 0 0 1 1 1 1 1
621	6300290 85 2628 602208 0.046595396413 9.046595396413 3 44 44 132 5808
624	6300375 85 2628 602208 0.046595396413 9.046595396413 3 45 45 135 6075
625	6300460 85 2631 602211 0.046595396413 9.046595396413 3 45 45 135 6075
628	6300545 26463 2648 675866 0.047 9.997 1393 0 0 0 0
635	6327008 29535 2648 675866 0.047 9.997 1393 1 1393 970921 901985609
647	6356543 163 0 6387 0 0.105 10 1 2 19 37
653	6356706 85 3227 602920 0.055913616046 9.055913616046 3 44 44 132 5808
656	6356791 85 3227 602920 0.055913616046 9.055913616046 3 45 45 135 6075
657	6356876 85 3230 602923 0.055913616046 9.055913616046 3 45 45 135 6075
660	6356961 26408 3249 675793 0.056 9.996 1390 0 0 0 0
667	6383369 29471 3249 675793 0.056 9.996 1390 1 1390 966745 896172615
679	6412840 163 0 6388 0 0.105 10 1 2 19 37
685	6413003 85 5002 605163 0.083428886256 9.083428886256 3 44 44 132 5808
688	6413088 85 5002 605163 0.083428886256 9.083428886256 3 45 45 135 6075
689	6413173 256 5005 606361 0.083428886256 9.098 12 3 45 288 9558
690	6413429 127293 4632 676086 0.077 9.999 6742 0 0 0 0
691	6540722 165 5326 606357 0.088 9.098 9 0 0 0 0
692	6540887 127094 4632 676086 0.077 9.999 6731 0 0 0 0
697	6667981 34 4748 5064 0.079 0.084 2 1 2 3 5
711	6668015 10 0 0 0 0 1 1 1 1 1
717	6668025 85 1869 601132 0.032752273618 9.032752273618 3 44 44 132 5808
720	6668110 85 1869 601132 0.032752273618 9.032752273618 3 45 45 135 6075
721	6668195 85 1872 601135 0.032752273618 9.032752273618 3 45 45 135 6075
722	6668280 57 155204 157488 3.057 3.087 3 0 0 0 0
724	6668337 26628 1892 675933 0.033 9.998 1402 0 0 0 0
730	6694965 24545 153713 675933 3.033 9.998 1166 1 1166 680361 529094071
731	6719510 4775 1892 674016 0.033 9.973 233 1 233 27261 4243629
743	6724285 163 0 6389 0 0.105 10 1 2 19 37
749	6724448 85 4126 603975 0.068834142487 9.068834142487 3 44 44 132 5808
752	6724533 85 4126 603975 0.068834142487 9.068834142487 3 45 45 135 6075
753	6724618 85 4129 603978 0.068834142487 9.068834142487 3 45 45 135 6075
756	6724703 26353 156046 676048 3.069 9.999 1387 0 0 0 0
763	6751056 29407 156046 676048 3.069 9.999 1387 1 1387 962578 890384650
775	6780463 163 0 6390 0 0.105 10 1 2 19 37
781	6780626 85 5210 605468 0.086610205313 9.086610205313 3 44 44 132 5808
784	6780711 85 5210 605468 0.086610205313 9.086610205313 3 45 45 135 6075
785	6780796 85 5213 605471 0.086610205313 9.086610205313 3 45 45 135 6075
788	6780881 37284 5291 675872 0.087 9.997 1983 0 0 0 0
795	6818165 42126 5291 675872 0.087 9.997 1983 1 1983 1967136 2601209504
807	6860291 10 0 0 0 0 1 1 1 1 1
813	6860301 85 1623 600788 0.028524626123 9.028524626123 3 44 44 132 5808
816	6860386 85 1623 600788 0.028524626123 9.028524626123 3 45 45 135 6075
817	6860471 85 1626 600791 0.028524626123 9.028524626123 3 45 45 135 6075
820	6860556 37489 1652 676051 0.029 9.999 1995 0 0 0 0
827	6898045 42367 1652 676051 0.029 9.999 1995 1 1995 1991010 2648706970
839	6940412 10 0 0 0 0 1 1 1 1 1
1319	6940422 94 1219 600079 0.019660798032 9.019660798032 3 7504 7504 22512 168930048
1320	6940516 94 1219 600079 0.019660798032 9.019660798032 3 7504 7504 22512 168930048
1322	6940610 85 1219 600079 0.019660798032 9.019660798032 3 0 0 0 0
1333	6940695 85 1219 600079 0.019660798032 9.019660798032 3 0 0 0 0
1343	6940780 94 1324 600307 0.022555459228 9.022555459228 3 7504 7504 22512 168930048
1344	6940874 94 1324 600307 0.022555459228 9.022555459228 3 7504 7504 22512 168930048
1346	6940968 85 1324 600307 0.022555459228 9.022555459228 3 0 0 0 0
1357	6941053 85 1324 600307 0.022555459228 9.022555459228 3 0 0 0 0
1367	6941138 94 1501 600549 0.025952952534 9.025952952534 3 7504 7504 22512 168930048
1368	6941232 94 1501 600549 0.025952952534 9.025952952534 3 7504 7504 22512 168930048
1370	6941326 85 1501 600549 0.025952952534 9.025952952534 3 0 0 0 0
1381	6941411 85 1501 600549 0.025952952534 9.025952952534 3 0 0 0 0
1391	6941496 94 1620 600785 0.028524626123 9.028524626123 3 7504 7504 22512 168930048
1392	6941590 94 1620 600785 0.028524626123 9.028524626123 3 7504 7504 22512 168930048
1394	6941684 85 1620 600785 0.028524626123 9.028524626123 3 0 0 0 0
1405	6941769 85 1620 600785 0.028524626123 9.028524626123 3 0 0 0 0
1415	6941854 94 1866 601129 0.032752273618 9.032752273618 3 7504 7504 22512 168930048
1416	6941948 94 1866 601129 0.032752273618 9.032752273618 3 7504 7504 22512 168930048
1418	6942042 85 1866 601129 0.032752273618 9.032752273618 3 0 0 0 0
1429	6942127 85 1866 601129 0.032752273618 9.032752273618 3 0 0 0 0
1439	6942212 94 2141 601485 0.037729873816 9.037729873816 3 7504 7504 22512 168930048
1440	6942306 94 2141 601485 0.037729873816 9.037729873816 3 7504 7504 22512 168930048
1442	6942400 85 2141 601485 0.037729873816 9.037729873816 3 0 0 0 0
1453	6942485 85 2141 601485 0.037729873816 9.037729873816 3 0 0 0 0
1463	6942570 94 2625 602205 0.046595396413 9.046595396413 3 7504 7504 22512 168930048
1464	6942664 94 2625 602205 0.046595396413 9.046595396413 3 7504 7504 22512 168930048
1466	6942758 85 2625 602205 0.046595396413 9.046595396413 3 0 0 0 0
1477	6942843 85 2625 602205 0.046595396413 9.046595396413 3 0 0 0 0
1487	6942928 94 3029 602727 0.053440309435 9.053440309435 3 7504 7504 22512 168930048
1488	6943022 94 3029 602727 0.053440309435 9.053440309435 3 7504 7504 22512 168930048
1490	6943116 85 3029 602727 0.053440309435 9.053440309435 3 0 0 0 0
1501	6943201 85 3029 602727 0.053440309435 9.053440309435 3 0 0 0 0
1511	6943286 91 3037 602734 0.05394782705 9.05394782705 3 7504 7504 22512 168930048
1512	6943377 91 3037 602734 0.05394782705 9.05394782705 3 7504 7504 22512 168930048
1514	6943468 82 3037 602734 0.05394782705 9.05394782705 3 0 0 0 0
1525	6943550 82 3037 602734 0.05394782705 9.05394782705 3 0 0 0 0
1535	6943632 94 3224 602917 0.055913616046 9.055913616046 3 7504 7504 22512 168930048
1536	6943726 94 3224 602917 0.055913616046 9.055913616046 3 7504 7504 22512 168930048
1538	6943820 85 3224 602917 0.055913616046 9.055913616046 3 0 0 0 0
1549	6943905 85 3224 602917 0.055913616046 9.055913616046 3 0 0 0 0
1559	6943990 94 3542 603153 0.058808041334 9.058808041334 3 7504 7504 22512 168930048
1560	6944084 94 3542 603153 0.058808041334 9.058808041334 3 7504 7504 22512 168930048
1562	6944178 85 3542 603153 0.058808041334 9.058808041334 3 0 0 0 0
1573	6944263 85 3542 603153 0.058808041334 9.058808041334 3 0 0 0 0
1583	6944348 94 3643 603313 0.060918334927 9.060918334927 3 7504 7504 22512 168930048
1584	6944442 94 3643 603313 0.060918334927 9.060918334927 3 7504 7504 22512 168930048
1586	6944536 85 3643 603313 0.060918334927 9.060918334927 3 0 0 0 0
1597	6944621 85 3643 603313 0.060918334927 9.060918334927 3 0 0 0 0
1607	6944706 94 3986 603771 0.066956260251 9.066956260251 3 7504 7504 22512 168930048
1608	6944800 94 3986 603771 0.066956260251 9.066956260251 3 7504 7504 22512 168930048
1610	6944894 85 3986 603771 0.066956260251 9.066956260251 3 0 0 0 0
1621	6944979 85 3986 603771 0.066956260251 9.066956260251 3 0 0 0 0
1631	6945064 94 4123 603972 0.068834142487 9.068834142487 3 7504 7504 22512 168930048
1632	6945158 94 4123 603972 0.068834142487 9.068834142487 3 7504 7504 22512 168930048
1634	6945252 85 4123 603972 0.068834142487 9.068834142487 3 0 0 0 0
1645	6945337 85 4123 603972 0.068834142487 9.068834142487 3 0 0 0 0
1655	6945422 94 4220 604049 0.069116189484 9.069116189484 3 7504 7504 22512 168930048
1656	6945516 94 4220 604049 0.069116189484 9.069116189484 3 7504 7504 22512 168930048
1658	6945610 85 4220 604049 0.069116189484 9.069116189484 3 0 0 0 0
1669	6945695 85 4220 604049 0.069116189484 9.069116189484 3 0 0 0 0
1679	6945780 94 4469 604474 0.074373740533 9.074373740533 3 7504 7504 22512 168930048
1680	6945874 94 4469 604474 0.074373740533 9.074373740533 3 7504 7504 22512 168930048
1682	6945968 85 4469 604474 0.074373740533 9.074373740533 3 0 0 0 0
1693	6946053 85 4469 604474 0.074373740533 9.074373740533 3 0 0 0 0
1703	6946138 91 4562 604550 0.07505697578 9.07505697578 3 7504 7504 22512 168930048
1704	6946229 91 4562 604550 0.07505697578 9.07505697578 3 7504 7504 22512 168930048
1706	6946320 82 4562 604550 0.07505697578 9.07505697578 3 0 0 0 0
1717	6946402 82 4562 604550 0.07505697578 9.07505697578 3 0 0 0 0
1727	6946484 91 4955 605092 0.08215464002 9.08215464002 3 7504 7504 22512 168930048
1728	6946575 91 4955 605092 0.08215464002 9.08215464002 3 7504 7504 22512 168930048
1730	6946666 82 4955 605092 0.08215464002 9.08215464002 3 0 0 0 0
1741	6946748 82 4955 605092 0.08215464002 9.08215464002 3 0 0 0 0
1751	6946830 94 4999 605160 0.083428886256 9.083428886256 3 7504 7504 22512 168930048
1752	6946924 94 4999 605160 0.083428886256 9.083428886256 3 7504 7504 22512 168930048
1754	6947018 85 4999 605160 0.083428886256 9.083428886256 3 0 0 0 0
1765	6947103 85 4999 605160 0.083428886256 9.083428886256 3 0 0 0 0
1775	6947188 94 5207 605465 0.086610205313 9.086610205313 3 7504 7504 22512 168930048
1776	6947282 94 5207 605465 0.086610205313 9.086610205313 3 7504 7504 22512 168930048
1778	6947376 85 5207 605465 0.086610205313 9.086610205313 3 0 0 0 0
1789	6947461 85 5207 605465 0.086610205313 9.086610205313 3 0 0 0 0
