file 3651870 1580829453                                         
version 2
run CAIN-230-20200204-12:16:45-11058
attr configname CAIN
attr datetime 20200204-12:16:45
attr dist 230
attr experiment CAIN
attr inifile omnetpp.ini
attr iterationvars "$dist=230, $mob=\"./movements/RWPRPGM-0.0.movements\""
attr iterationvars2 "$dist=230, $mob=\"./movements/RWPRPGM-0.0.movements\", $repetition=20"
attr measurement "$dist=230, $mob=\"./movements/RWPRPGM-0.0.movements\""
attr mob "\"./movements/RWPRPGM-0.0.movements\""
attr network lte.simulations.networks.CAIN
attr processid 11058
attr repetition 20
attr replication #20
attr resultdir results
attr runnumber 230
attr seedset 20
param **.**.amcMode "\"AUTO\""
param **.amcMode "\"D2D\""
param **.cainNetwork true
param **.channelControl.alpha 1.0
param **.channelControl.carrierFrequency 2100e+6Hz
param **.channelControl.pMax 10W
param **.d2dCqi 7
param **.deployer.numRbDl 50
param **.deployer.numRbUl 50
param **.distThresh "${dist=200..260 step 10}"
param **.fbDelay 1
param **.feedbackComputation "xmldoc(\"config_channel.xml\")"
param **.mobility.constraintAreaMaxX 1000m
param **.mobility.constraintAreaMaxY 1000m
param **.mobility.constraintAreaMaxZ 0m
param **.mobility.constraintAreaMinX 0m
param **.mobility.constraintAreaMinY 0m
param **.mobility.constraintAreaMinZ 0m
param **.nic.phy.channelModel "xmldoc(\"config_channel.xml\")"
param **.numBands 50
param **.pwrThresh -10
param **.qtdThresh 3
param **.rbAllocationType "\"localized\""
param **.routingRecorder.enabled false
param **.tcpApp[*].tClose -1s
param **.ueD2DTx[*].mobility.changeAngleBy "normal(0deg, 30deg)"
param **.ueD2DTx[*].mobility.changeInterval "normal(5s, 0.1s)"
param **.ueD2DTx[*].mobility.nodeId -1
param **.ueD2DTx[*].mobility.speed "normal(2mps, 0.01mps)"
param **.ueD2DTx[*].mobility.traceFile "${mob=\"./movements/RWPRPGM-0.0.movements\",\"./movements/RWPRPGM-0.5.movements\"}"
param **.ueD2DTx[*].mobilityType "\"BonnMotionMobility\""
param **.usePreconfiguredTxParams false
param *.eNodeB.d2dCapable false
param *.eNodeB.mobility.initFromDisplayString false
param *.eNodeB.mobility.initialX 300m
param *.eNodeB.mobility.initialY 300m
param *.eNodeB.nic.phy.enableD2DCqiReporting true
param *.eNodeB.txPower 19952.62315mw
param *.numUeCell 0
param *.numUeD2DRx 1
param *.numUeD2DTx 1
param *.ue*.macCellId 1
param *.ue*.masterId 1
param *.ue*.mobility.initFromDisplayString false
param *.ue*[0].macCellId 1
param *.ue*[0].masterId 1
param *.ue*[0].mobility.initFromDisplayString false
param *.ueD2D*.numTcpApps 1
param *.ueD2D*[*].d2dCapable true
param *.ueD2D*[0].d2dCapable false
param *.ueD2D*[0].numTcpApps 1
param *.ueD2DRx[0].mobility.initialX 310m
param *.ueD2DRx[0].mobility.initialY 350m
param *.ueD2DRx[0].tcpApp[*].localPort 1000
param *.ueD2DRx[0].tcpApp[*].typename "\"TCPSinkApp\""
param *.ueD2DTx*.tcpApp[*].connectAddress "\"ueD2DTx[0]\""
param *.ueD2DTx*.tcpApp[*].localAddress "\"ueD2DTx\""
param *.ueD2DTx*.tcpApp[*].localPort 1000
param *.ueD2DTx*.tcpApp[*].sendBytes 1GiB
param *.ueD2DTx*.tcpApp[*].typename "\"TCPSessionApp\""
param *.ueD2DTx*.tcpApp[0].active true
param *.ueD2DTx*.tcpApp[0].connectPort 1000
param *.ueD2DTx*.tcpApp[0].tOpen uniform(0.010s,0.1s)
param *.ueD2DTx*.tcpApp[0].tSend uniform(0.15s,0.5s)
param *.ueD2DTx[0].mobility.initialX 290m
param *.ueD2DTx[0].mobility.initialY 350m
param *.ueD2DTx[0].nic.d2dPeerAddresses "\"ueD2DTx[1]\""
param *.ueD2DTx[0].tcpApp[*].localPort 1000
param *.ueD2DTx[0].tcpApp[*].sendBytes 1GiB
param *.ueD2DTx[0].tcpApp[*].typename "\"TCPSessionApp\""
param *.ueD2DTx[0].tcpApp[0].active true
param *.ueD2DTx[0].tcpApp[0].connectAddress "\"ueD2DRx[0]\""
param *.ueD2DTx[0].tcpApp[0].connectPort 1000
param *.ueD2DTx[0].tcpApp[0].localAddress "\"ueD2DTx[0]\""
param *.ueD2DTx[0].tcpApp[0].tOpen uniform(0.010s,0.1s)
param *.ueD2DTx[0].tcpApp[0].tSend uniform(0.15s,0.5s)
param *.ueD2DTx[1].nic.d2dPeerAddresses "\"ueD2DTx[0]\""

vector 8  CAIN.server.ppp[0].queue  queueLength:vector  ETV
attr interpolationmode  sample-hold
attr title  "queue length, vector"
vector 9  CAIN.server.ppp[0].ppp  txState:vector  ETV
attr interpolationmode  sample-hold
attr title  "tx state, vector"
vector 24  CAIN.router.ppp[0].queue  queueLength:vector  ETV
attr interpolationmode  sample-hold
attr title  "queue length, vector"
vector 25  CAIN.router.ppp[0].ppp  txState:vector  ETV
attr interpolationmode  sample-hold
attr title  "tx state, vector"
vector 35  CAIN.router.ppp[1].queue  queueLength:vector  ETV
attr interpolationmode  sample-hold
attr title  "queue length, vector"
vector 36  CAIN.router.ppp[1].ppp  txState:vector  ETV
attr interpolationmode  sample-hold
attr title  "tx state, vector"
vector 56  CAIN.pgw.ppp[0].queue  queueLength:vector  ETV
attr interpolationmode  sample-hold
attr title  "queue length, vector"
vector 57  CAIN.pgw.ppp[0].ppp  txState:vector  ETV
attr interpolationmode  sample-hold
attr title  "tx state, vector"
vector 67  CAIN.pgw.pppInterface.queue  queueLength:vector  ETV
attr interpolationmode  sample-hold
attr title  "queue length, vector"
vector 68  CAIN.pgw.pppInterface.ppp  txState:vector  ETV
attr interpolationmode  sample-hold
attr title  "tx state, vector"
vector 104  CAIN.eNodeB.pppIf.queue  queueLength:vector  ETV
attr interpolationmode  sample-hold
attr title  "queue length, vector"
vector 105  CAIN.eNodeB.pppIf.ppp  txState:vector  ETV
attr interpolationmode  sample-hold
attr title  "tx state, vector"
vector 138  CAIN.ueD2DTx[0].nic.phy  servingCell:vector  ETV
attr source  servingCell
attr title  "ID of the serving eNodeB for the UE, vector"
attr unit  ""
vector 165  CAIN.ueD2DTx[1].nic.phy  servingCell:vector  ETV
attr source  servingCell
attr title  "ID of the serving eNodeB for the UE, vector"
attr unit  ""
vector 192  CAIN.ueD2DTx[2].nic.phy  servingCell:vector  ETV
attr source  servingCell
attr title  "ID of the serving eNodeB for the UE, vector"
attr unit  ""
vector 219  CAIN.ueD2DTx[3].nic.phy  servingCell:vector  ETV
attr source  servingCell
attr title  "ID of the serving eNodeB for the UE, vector"
attr unit  ""
vector 246  CAIN.ueD2DTx[4].nic.phy  servingCell:vector  ETV
attr source  servingCell
attr title  "ID of the serving eNodeB for the UE, vector"
attr unit  ""
vector 85  CAIN.eNodeB.nic.mac  receivedPacketFromLowerLayer:vector(packetBytes)  ETV
attr interpolationmode  none
attr source  receivedPacketFromLowerLayer
vector 264  CAIN.ueD2DTx[0].tcp  tcpRcvQueueBytes  ETV
vector 251  CAIN.ueD2DTx[0].tcp  "advertised window"  ETV
vector 250  CAIN.ueD2DTx[0].tcp  "receive window"  ETV
vector 253  CAIN.ueD2DTx[0].tcp  "sent ack"  ETV
vector 117  CAIN.ueD2DTx[0].nic.pdcpRrc  receivedPacketFromUpperLayer:vector(packetBytes)  ETV
attr interpolationmode  none
attr source  receivedPacketFromUpperLayer
vector 120  CAIN.ueD2DTx[0].nic.pdcpRrc  sentPacketToLowerLayer:vector(packetBytes)  ETV
attr interpolationmode  none
attr source  sentPacketToLowerLayer
vector 121  CAIN.ueD2DTx[0].nic.mac  receivedPacketFromUpperLayer:vector(packetBytes)  ETV
attr interpolationmode  none
attr source  receivedPacketFromUpperLayer
vector 124  CAIN.ueD2DTx[0].nic.mac  sentPacketToLowerLayer:vector(packetBytes)  ETV
attr interpolationmode  none
attr source  sentPacketToLowerLayer
vector 96  CAIN.eNodeB.nic.mac  racpkt:vector  ETV
attr interpolationmode  none
attr title  "eNB received racpkt message, vector"
vector 97  CAIN.eNodeB.nic.mac  racDistanceSignal:vector  ETV
attr interpolationmode  none
attr title  "Rac distance to enb, vector"
vector 87  CAIN.eNodeB.nic.mac  sentPacketToLowerLayer:vector(packetBytes)  ETV
attr interpolationmode  none
attr source  sentPacketToLowerLayer
vector 176  CAIN.ueD2DTx[2].nic.mac  receivedPacketFromLowerLayer:vector(packetBytes)  ETV
attr interpolationmode  none
attr source  receivedPacketFromLowerLayer
vector 187  CAIN.ueD2DTx[2].nic.mac  racpkt:vector  ETV
attr interpolationmode  none
attr title  "eNB received racpkt message, vector"
vector 188  CAIN.ueD2DTx[2].nic.mac  racDistanceSignal:vector  ETV
attr interpolationmode  none
attr title  "Rac distance to enb, vector"
vector 178  CAIN.ueD2DTx[2].nic.mac  sentPacketToLowerLayer:vector(packetBytes)  ETV
attr interpolationmode  none
attr source  sentPacketToLowerLayer
vector 122  CAIN.ueD2DTx[0].nic.mac  receivedPacketFromLowerLayer:vector(packetBytes)  ETV
attr interpolationmode  none
attr source  receivedPacketFromLowerLayer
vector 149  CAIN.ueD2DTx[1].nic.mac  receivedPacketFromLowerLayer:vector(packetBytes)  ETV
attr interpolationmode  none
attr source  receivedPacketFromLowerLayer
vector 160  CAIN.ueD2DTx[1].nic.mac  racpkt:vector  ETV
attr interpolationmode  none
attr title  "eNB received racpkt message, vector"
vector 161  CAIN.ueD2DTx[1].nic.mac  racDistanceSignal:vector  ETV
attr interpolationmode  none
attr title  "Rac distance to enb, vector"
vector 151  CAIN.ueD2DTx[1].nic.mac  sentPacketToLowerLayer:vector(packetBytes)  ETV
attr interpolationmode  none
attr source  sentPacketToLowerLayer
vector 230  CAIN.ueD2DTx[4].nic.mac  receivedPacketFromLowerLayer:vector(packetBytes)  ETV
attr interpolationmode  none
attr source  receivedPacketFromLowerLayer
vector 241  CAIN.ueD2DTx[4].nic.mac  racpkt:vector  ETV
attr interpolationmode  none
attr title  "eNB received racpkt message, vector"
vector 242  CAIN.ueD2DTx[4].nic.mac  racDistanceSignal:vector  ETV
attr interpolationmode  none
attr title  "Rac distance to enb, vector"
vector 232  CAIN.ueD2DTx[4].nic.mac  sentPacketToLowerLayer:vector(packetBytes)  ETV
attr interpolationmode  none
attr source  sentPacketToLowerLayer
vector 133  CAIN.ueD2DTx[0].nic.mac  racpkt:vector  ETV
attr interpolationmode  none
attr title  "eNB received racpkt message, vector"
vector 134  CAIN.ueD2DTx[0].nic.mac  racDistanceSignal:vector  ETV
attr interpolationmode  none
attr title  "Rac distance to enb, vector"
vector 203  CAIN.ueD2DTx[3].nic.mac  receivedPacketFromLowerLayer:vector(packetBytes)  ETV
attr interpolationmode  none
attr source  receivedPacketFromLowerLayer
vector 214  CAIN.ueD2DTx[3].nic.mac  racpkt:vector  ETV
attr interpolationmode  none
attr title  "eNB received racpkt message, vector"
vector 215  CAIN.ueD2DTx[3].nic.mac  racDistanceSignal:vector  ETV
attr interpolationmode  none
attr title  "Rac distance to enb, vector"
vector 205  CAIN.ueD2DTx[3].nic.mac  sentPacketToLowerLayer:vector(packetBytes)  ETV
attr interpolationmode  none
attr source  sentPacketToLowerLayer
vector 93  CAIN.eNodeB.nic.mac  ServedDevs:vector  ETV
attr interpolationmode  none
attr title  "# of devices served on cain forwarding, vector"
vector 91  CAIN.eNodeB.nic.mac  DistanceSignal:vector  ETV
attr interpolationmode  none
attr title  "Distance to enb, vector"
vector 89  CAIN.eNodeB.nic.mac  CainMessage:vector  ETV
attr interpolationmode  none
attr title  "eNB received CAIN message, vector"
vector 92  CAIN.eNodeB.nic.mac  HopDistanceSignal:vector  ETV
attr interpolationmode  none
attr title  "Distance to enb with hop forwarding, vector"
vector 90  CAIN.eNodeB.nic.mac  CainHopMessage:vector  ETV
attr interpolationmode  none
attr title  "eNB received CAIN hop message, vector"
vector 288  CAIN.ueD2DTx[1].tcp  tcpRcvQueueBytes  ETV
vector 275  CAIN.ueD2DTx[1].tcp  "advertised window"  ETV
vector 274  CAIN.ueD2DTx[1].tcp  "receive window"  ETV
vector 277  CAIN.ueD2DTx[1].tcp  "sent ack"  ETV
vector 144  CAIN.ueD2DTx[1].nic.pdcpRrc  receivedPacketFromUpperLayer:vector(packetBytes)  ETV
attr interpolationmode  none
attr source  receivedPacketFromUpperLayer
vector 147  CAIN.ueD2DTx[1].nic.pdcpRrc  sentPacketToLowerLayer:vector(packetBytes)  ETV
attr interpolationmode  none
attr source  sentPacketToLowerLayer
vector 148  CAIN.ueD2DTx[1].nic.mac  receivedPacketFromUpperLayer:vector(packetBytes)  ETV
attr interpolationmode  none
attr source  receivedPacketFromUpperLayer
vector 150  CAIN.ueD2DTx[1].nic.mac  sentPacketToUpperLayer:vector(packetBytes)  ETV
attr interpolationmode  none
attr source  sentPacketToUpperLayer
vector 99  CAIN.eNodeB.nic.phy  averageCqiUlvect:vector  ETV
attr source  averageCqiUlvect
attr title  "Average Cqi reported in UL, vector"
attr unit  cqi
vector 86  CAIN.eNodeB.nic.mac  sentPacketToUpperLayer:vector(packetBytes)  ETV
attr interpolationmode  none
attr source  sentPacketToUpperLayer
vector 81  CAIN.eNodeB.nic.pdcpRrc  receivedPacketFromLowerLayer:vector(packetBytes)  ETV
attr interpolationmode  none
attr source  receivedPacketFromLowerLayer
vector 82  CAIN.eNodeB.nic.pdcpRrc  sentPacketToUpperLayer:vector(packetBytes)  ETV
attr interpolationmode  none
attr source  sentPacketToUpperLayer
vector 80  CAIN.eNodeB.nic.pdcpRrc  receivedPacketFromUpperLayer:vector(packetBytes)  ETV
attr interpolationmode  none
attr source  receivedPacketFromUpperLayer
vector 83  CAIN.eNodeB.nic.pdcpRrc  sentPacketToLowerLayer:vector(packetBytes)  ETV
attr interpolationmode  none
attr source  sentPacketToLowerLayer
vector 84  CAIN.eNodeB.nic.mac  receivedPacketFromUpperLayer:vector(packetBytes)  ETV
attr interpolationmode  none
attr source  receivedPacketFromUpperLayer
vector 312  CAIN.ueD2DTx[2].tcp  tcpRcvQueueBytes  ETV
vector 299  CAIN.ueD2DTx[2].tcp  "advertised window"  ETV
vector 298  CAIN.ueD2DTx[2].tcp  "receive window"  ETV
vector 301  CAIN.ueD2DTx[2].tcp  "sent ack"  ETV
vector 171  CAIN.ueD2DTx[2].nic.pdcpRrc  receivedPacketFromUpperLayer:vector(packetBytes)  ETV
attr interpolationmode  none
attr source  receivedPacketFromUpperLayer
vector 174  CAIN.ueD2DTx[2].nic.pdcpRrc  sentPacketToLowerLayer:vector(packetBytes)  ETV
attr interpolationmode  none
attr source  sentPacketToLowerLayer
vector 175  CAIN.ueD2DTx[2].nic.mac  receivedPacketFromUpperLayer:vector(packetBytes)  ETV
attr interpolationmode  none
attr source  receivedPacketFromUpperLayer
vector 88  CAIN.eNodeB.nic.mac  measuredItbs:vector  ETV
attr source  measuredItbs
attr title  "TBS index, vector"
attr unit  ""
vector 189  CAIN.ueD2DTx[2].nic.phy  averageCqiDlvect:vector  ETV
attr source  averageCqiDlvect
attr title  "Average Cqi reported in DL, vector"
attr unit  cqi
vector 177  CAIN.ueD2DTx[2].nic.mac  sentPacketToUpperLayer:vector(packetBytes)  ETV
attr interpolationmode  none
attr source  sentPacketToUpperLayer
vector 172  CAIN.ueD2DTx[2].nic.pdcpRrc  receivedPacketFromLowerLayer:vector(packetBytes)  ETV
attr interpolationmode  none
attr source  receivedPacketFromLowerLayer
vector 173  CAIN.ueD2DTx[2].nic.pdcpRrc  sentPacketToUpperLayer:vector(packetBytes)  ETV
attr interpolationmode  none
attr source  sentPacketToUpperLayer
vector 243  CAIN.ueD2DTx[4].nic.phy  averageCqiDlvect:vector  ETV
attr source  averageCqiDlvect
attr title  "Average Cqi reported in DL, vector"
attr unit  cqi
vector 231  CAIN.ueD2DTx[4].nic.mac  sentPacketToUpperLayer:vector(packetBytes)  ETV
attr interpolationmode  none
attr source  sentPacketToUpperLayer
vector 226  CAIN.ueD2DTx[4].nic.pdcpRrc  receivedPacketFromLowerLayer:vector(packetBytes)  ETV
attr interpolationmode  none
attr source  receivedPacketFromLowerLayer
vector 227  CAIN.ueD2DTx[4].nic.pdcpRrc  sentPacketToUpperLayer:vector(packetBytes)  ETV
attr interpolationmode  none
attr source  sentPacketToUpperLayer
vector 336  CAIN.ueD2DTx[4].tcp  tcpRcvQueueBytes  ETV
vector 323  CAIN.ueD2DTx[4].tcp  "advertised window"  ETV
vector 322  CAIN.ueD2DTx[4].tcp  "receive window"  ETV
vector 325  CAIN.ueD2DTx[4].tcp  "sent ack"  ETV
vector 225  CAIN.ueD2DTx[4].nic.pdcpRrc  receivedPacketFromUpperLayer:vector(packetBytes)  ETV
attr interpolationmode  none
attr source  receivedPacketFromUpperLayer
vector 228  CAIN.ueD2DTx[4].nic.pdcpRrc  sentPacketToLowerLayer:vector(packetBytes)  ETV
attr interpolationmode  none
attr source  sentPacketToLowerLayer
vector 229  CAIN.ueD2DTx[4].nic.mac  receivedPacketFromUpperLayer:vector(packetBytes)  ETV
attr interpolationmode  none
attr source  receivedPacketFromUpperLayer
vector 360  CAIN.ueD2DTx[3].tcp  tcpRcvQueueBytes  ETV
vector 347  CAIN.ueD2DTx[3].tcp  "advertised window"  ETV
vector 346  CAIN.ueD2DTx[3].tcp  "receive window"  ETV
vector 349  CAIN.ueD2DTx[3].tcp  "sent ack"  ETV
vector 198  CAIN.ueD2DTx[3].nic.pdcpRrc  receivedPacketFromUpperLayer:vector(packetBytes)  ETV
attr interpolationmode  none
attr source  receivedPacketFromUpperLayer
vector 201  CAIN.ueD2DTx[3].nic.pdcpRrc  sentPacketToLowerLayer:vector(packetBytes)  ETV
attr interpolationmode  none
attr source  sentPacketToLowerLayer
vector 202  CAIN.ueD2DTx[3].nic.mac  receivedPacketFromUpperLayer:vector(packetBytes)  ETV
attr interpolationmode  none
attr source  receivedPacketFromUpperLayer
vector 204  CAIN.ueD2DTx[3].nic.mac  sentPacketToUpperLayer:vector(packetBytes)  ETV
attr interpolationmode  none
attr source  sentPacketToUpperLayer
vector 135  CAIN.ueD2DTx[0].nic.phy  averageCqiDlvect:vector  ETV
attr source  averageCqiDlvect
attr title  "Average Cqi reported in DL, vector"
attr unit  cqi
vector 123  CAIN.ueD2DTx[0].nic.mac  sentPacketToUpperLayer:vector(packetBytes)  ETV
attr interpolationmode  none
attr source  sentPacketToUpperLayer
vector 118  CAIN.ueD2DTx[0].nic.pdcpRrc  receivedPacketFromLowerLayer:vector(packetBytes)  ETV
attr interpolationmode  none
attr source  receivedPacketFromLowerLayer
vector 119  CAIN.ueD2DTx[0].nic.pdcpRrc  sentPacketToUpperLayer:vector(packetBytes)  ETV
attr interpolationmode  none
attr source  sentPacketToUpperLayer
8	17263 8 0 0 0 0 1 0 0 0 0
9	17271 8 0 0 0 0 1 0 0 0 0
24	17279 9 0 0 0 0 1 0 0 0 0
25	17288 9 0 0 0 0 1 0 0 0 0
35	17297 9 0 0 0 0 1 0 0 0 0
36	17306 9 0 0 0 0 1 0 0 0 0
56	17315 9 0 0 0 0 1 0 0 0 0
57	17324 9 0 0 0 0 1 0 0 0 0
67	17333 9 0 0 0 0 1 0 0 0 0
68	17342 9 0 0 0 0 1 0 0 0 0
80	17351 214 670 211740 0.033 9.082 12 44 44 528 23232
81	17565 214 665 211735 0.033 9.082 12 45 45 540 24300
82	17779 214 665 211735 0.033 9.082 12 44 44 528 23232
83	17993 214 670 211740 0.033 9.082 12 45 45 540 24300
84	18207 429 673 211766 0.033 9.083 24 45 47 1104 50808
85	18636 320735 60 233022 0.002 9.998 18409 0 0 0 0
86	339371 471 660 211761 0.033 9.083 27 0 47 570 23916
87	339842 141426 224 232991 0.017 9.998 8072 0 0 0 0
88	481268 215 702 211761 0.034 9.083 12 26 26 312 8112
89	481483 163757 322 233022 0.021 9.998 8032 1 8032 32260528 172755127440
90	645240 81329 362 233022 0.023 9.998 4016 1 4016 8066136 21598423496
91	726569 78412 322 232967 0.021 9.996 4016 162 424 1176688 413688160
92	804981 78420 362 233022 0.023 9.998 4016 182 253 873480 195043064
93	883401 70380 322 232967 0.021 9.996 4016 1 2 8031 16061
96	953781 122618 224 233022 0.017 9.998 6028 1 6028 18171406 73030880714
97	1076399 113678 224 233022 0.017 9.998 6028 78 253 679585 91201685
99	1190077 313 575 211649 0.03 9.079 18 9 15 228 3018
104	1190390 10 0 0 0 0 1 0 0 0 0
105	1190400 10 0 0 0 0 1 0 0 0 0
117	1190410 83 204 209772 0.015788010289 9.015788010289 3 44 44 132 5808
118	1190493 57 2292 211876 0.087 9.087 3 45 45 135 6075
119	1190550 57 2292 211876 0.087 9.087 3 44 44 132 5808
120	1190607 83 204 209772 0.015788010289 9.015788010289 3 45 45 135 6075
121	1190690 83 207 209775 0.015788010289 9.015788010289 3 45 45 135 6075
122	1190773 73264 264 233058 0.019 10 4015 0 0 0 0
123	1264037 57 2288 211872 0.087 9.087 3 47 47 141 6627
124	1264094 73211 209 233058 0.016 10 4012 0 0 0 0
133	1337305 41084 296 233058 0.02 10 2012 1 2012 2025078 2716979650
134	1378389 40173 296 233058 0.02 10 2012 0 215 431935 92866025
135	1418562 57 2220 211804 0.084 9.084 3 15 15 45 675
138	1418619 10 0 0 0 0 1 1 1 1 1
144	1418629 83 395 209982 0.024316558922 9.024316558922 3 44 44 132 5808
147	1418712 83 395 209982 0.024316558922 9.024316558922 3 45 45 135 6075
148	1418795 139 398 210116 0.024316558922 9.029 6 45 47 276 12702
149	1418934 186159 266 233039 0.019 9.999 10049 0 0 0 0
150	1605093 53 525 210112 0.029 9.029 3 0 0 0 0
151	1605146 186159 266 233039 0.019 9.999 10049 0 0 0 0
160	1791305 215119 266 233039 0.019 9.999 10043 1 10043 50435946 337702282434
161	2006424 200112 266 233039 0.019 9.999 10043 78 253 1343586 231711332
165	2206536 10 0 0 0 0 1 1 1 1 1
171	2206546 83 698 210284 0.033656805798 9.033656805798 3 44 44 132 5808
172	2206629 113 839 211366 0.038 9.072 6 45 45 270 12150
173	2206742 113 839 211366 0.038 9.072 6 44 44 264 11616
174	2206855 83 698 210284 0.033656805798 9.033656805798 3 45 45 135 6075
175	2206938 139 701 210428 0.033656805798 9.038 6 45 47 276 12702
176	2207077 258461 242 233067 0.018 10 14073 0 0 0 0
177	2465538 166 833 211362 0.038 9.072 9 0 47 282 13254
178	2465704 295678 242 233067 0.018 10 16082 0 0 0 0
187	2761382 303385 242 233067 0.018 10 14061 1 14061 98862891 926773694531
188	3064767 274315 242 233067 0.018 10 14061 0 215 1620833 331229821
189	3339082 113 744 211286 0.035 9.069 6 15 15 90 1350
192	3339195 10 0 0 0 0 1 1 1 1 1
198	3339205 84 1688 211272 0.068852874448 9.068852874448 3 44 44 132 5808
201	3339289 84 1688 211272 0.068852874448 9.068852874448 3 45 45 135 6075
202	3339373 198 1691 211602 0.068852874448 9.078 9 16 45 282 10110
203	3339571 36317 299 233061 0.02 10 2021 0 0 0 0
204	3375888 108 1824 211598 0.073 9.078 6 0 0 0 0
205	3375996 36317 299 233061 0.02 10 2021 0 0 0 0
214	3412313 41021 299 233061 0.02 10 2009 1 2009 2019045 2704847285
215	3453334 40119 299 233061 0.02 10 2009 215 215 431935 92866025
219	3493453 10 0 0 0 0 1 1 1 1 1
225	3493463 81 1352 210937 0.05874538359 9.05874538359 3 44 44 132 5808
226	3493544 57 1077 210663 0.047 9.047 3 45 45 135 6075
227	3493601 57 1077 210663 0.047 9.047 3 44 44 132 5808
228	3493658 81 1352 210937 0.05874538359 9.05874538359 3 45 45 135 6075
229	3493739 138 1355 211079 0.05874538359 9.063 6 45 47 276 12702
230	3493877 37381 275 233042 0.019 9.999 2018 0 0 0 0
231	3531258 111 1073 211075 0.047 9.063 6 0 47 141 6627
232	3531369 37381 275 233042 0.019 9.999 2018 0 0 0 0
241	3568750 42139 275 233042 0.019 9.999 2009 1 2009 2019045 2704847285
242	3610889 39228 275 233042 0.019 9.999 2009 78 78 156702 12222756
243	3650117 57 1047 210633 0.044 9.044 3 15 15 45 675
246	3650174 10 0 0 0 0 1 1 1 1 1
250	3650184 89 201 209769 0.015788010289 9.015788010289 3 7504 7504 22512 168930048
251	3650273 89 201 209769 0.015788010289 9.015788010289 3 7504 7504 22512 168930048
253	3650362 80 201 209769 0.015788010289 9.015788010289 3 0 0 0 0
264	3650442 80 201 209769 0.015788010289 9.015788010289 3 0 0 0 0
274	3650522 89 392 209979 0.024316558922 9.024316558922 3 7504 7504 22512 168930048
275	3650611 89 392 209979 0.024316558922 9.024316558922 3 7504 7504 22512 168930048
277	3650700 80 392 209979 0.024316558922 9.024316558922 3 0 0 0 0
288	3650780 80 392 209979 0.024316558922 9.024316558922 3 0 0 0 0
298	3650860 89 695 210281 0.033656805798 9.033656805798 3 7504 7504 22512 168930048
299	3650949 89 695 210281 0.033656805798 9.033656805798 3 7504 7504 22512 168930048
301	3651038 80 695 210281 0.033656805798 9.033656805798 3 0 0 0 0
312	3651118 80 695 210281 0.033656805798 9.033656805798 3 0 0 0 0
322	3651198 87 1349 210934 0.05874538359 9.05874538359 3 7504 7504 22512 168930048
323	3651285 87 1349 210934 0.05874538359 9.05874538359 3 7504 7504 22512 168930048
325	3651372 78 1349 210934 0.05874538359 9.05874538359 3 0 0 0 0
336	3651450 78 1349 210934 0.05874538359 9.05874538359 3 0 0 0 0
346	3651528 90 1685 211269 0.068852874448 9.068852874448 3 7504 7504 22512 168930048
347	3651618 90 1685 211269 0.068852874448 9.068852874448 3 7504 7504 22512 168930048
349	3651708 81 1685 211269 0.068852874448 9.068852874448 3 0 0 0 0
360	3651789 81 1685 211269 0.068852874448 9.068852874448 3 0 0 0 0
