file 4982568 1588977271                                         
version 2
run CAIN-24-20200508-19:32:22-23867
attr configname CAIN
attr datetime 20200508-19:32:22
attr dist 200
attr experiment CAIN
attr inifile omnetpp.ini
attr iterationvars "$numUe=20, $pwr=-50, $dist=200, $mob=\"./movements/RWPRPGM-0.0.movements\""
attr iterationvars2 "$numUe=20, $pwr=-50, $dist=200, $mob=\"./movements/RWPRPGM-0.0.movements\", $repetition=4"
attr measurement "$numUe=20, $pwr=-50, $dist=200, $mob=\"./movements/RWPRPGM-0.0.movements\""
attr mob "\"./movements/RWPRPGM-0.0.movements\""
attr network lte.simulations.networks.CAIN
attr numUe 20
attr processid 23867
attr pwr -50
attr repetition 4
attr replication #4
attr resultdir results
attr runnumber 24
attr seedset 4
param **.**.amcMode "\"AUTO\""
param **.amcMode "\"D2D\""
param **.cainNetwork true
param **.channelControl.alpha 1.0
param **.channelControl.carrierFrequency 2100e+6Hz
param **.channelControl.pMax 10W
param **.d2dCqi 7
param **.deployer.numRbDl 50
param **.deployer.numRbUl 50
param **.distThresh ${dist=200}
param **.fbDelay 1
param **.feedbackComputation "xmldoc(\"config_channel.xml\")"
param **.mobility.constraintAreaMaxX 1000m
param **.mobility.constraintAreaMaxY 1000m
param **.mobility.constraintAreaMaxZ 0m
param **.mobility.constraintAreaMinX 0m
param **.mobility.constraintAreaMinY 0m
param **.mobility.constraintAreaMinZ 0m
param **.nic.phy.channelModel "xmldoc(\"config_channel.xml\")"
param **.numBands 50
param **.pwrThresh "${pwr= -50}"
param **.qtdThresh 3
param **.rbAllocationType "\"localized\""
param **.routingRecorder.enabled false
param **.tcpApp[*].tClose -1s
param **.ueD2DTx[*].mobility.changeAngleBy "normal(0deg, 30deg)"
param **.ueD2DTx[*].mobility.changeInterval "normal(5s, 0.1s)"
param **.ueD2DTx[*].mobility.nodeId -1
param **.ueD2DTx[*].mobility.speed "normal(2mps, 0.01mps)"
param **.ueD2DTx[*].mobility.traceFile "${mob=\"./movements/RWP-0.0.movements\",\"./movements/RWP-0.5.movements\",\"./movements/RPGM-0.0.movements\",\"./movements/RPGM-0.5.movements\",\"./movements/RWPRPGM-0.0.movements\",\"./movements/RWPRPGM-0.5.movements\"}"
param **.ueD2DTx[*].mobilityType "\"BonnMotionMobility\""
param **.usePreconfiguredTxParams false
param *.eNodeB*.numX2Apps 1
param *.eNodeB*.x2App[*].server.localPort "5000 + ancestorIndex(1)"
param *.eNodeB.d2dCapable false
param *.eNodeB.mobility.initFromDisplayString false
param *.eNodeB.mobility.initialX 300m
param *.eNodeB.mobility.initialY 300m
param *.eNodeB.nic.phy.enableD2DCqiReporting true
param *.eNodeB.txPower 19952.62315mw
param *.eNodeB.x2App[0].client.connectAddress "\"eNodeB1%x2ppp0\""
param *.eNodeB1.d2dCapable true
param *.eNodeB1.mobility.initFromDisplayString false
param *.eNodeB1.mobility.initialX 700m
param *.eNodeB1.mobility.initialY 300m
param *.eNodeB1.nic.phy.enableD2DCqiReporting true
param *.eNodeB1.txPower 19952.62315mw
param *.eNodeB1.x2App[0].client.connectAddress "\"eNodeB%x2ppp0\""
param *.extCell[*].bandAllocationType "\"FULL_ALLOC\""
param *.extCell[*].bandUtilization 0.5
param *.extCell[*].txDirection "\"ANISOTROPIC\""
param *.extCell[*].txPower 20
param *.extCell[0].position_x 100m
param *.extCell[0].position_y 600m
param *.extCell[0].txAngle 315
param *.extCell[1].position_x 600m
param *.extCell[1].position_y 600m
param *.extCell[1].txAngle 225
param *.numExtCells 2
param *.numUeCell 0
param *.numUeD2DRx 1
param *.numUeD2DTx 1
param *.ue*.macCellId 1
param *.ue*.masterId 1
param *.ue*.mobility.initFromDisplayString false
param *.ue*[0].macCellId 1
param *.ue*[0].masterId 1
param *.ue*[0].mobility.initFromDisplayString false
param *.ueD2D*.numTcpApps 1
param *.ueD2D*[*].d2dCapable true
param *.ueD2D*[0].d2dCapable false
param *.ueD2D*[0].numTcpApps 1
param *.ueD2DRx[0].mobility.initialX 310m
param *.ueD2DRx[0].mobility.initialY 350m
param *.ueD2DRx[0].tcpApp[*].localPort 1000
param *.ueD2DRx[0].tcpApp[*].typename "\"TCPSinkApp\""
param *.ueD2DTx*.nic.d2dPeerAddresses "\"ueD2DTx[1]\""
param *.ueD2DTx*.tcpApp[*].connectAddress "\"ueD2DTx[0]\""
param *.ueD2DTx*.tcpApp[*].localAddress "\"ueD2DTx\""
param *.ueD2DTx*.tcpApp[*].localPort 1000
param *.ueD2DTx*.tcpApp[*].sendBytes 1GiB
param *.ueD2DTx*.tcpApp[*].typename "\"TCPSessionApp\""
param *.ueD2DTx*.tcpApp[0].active true
param *.ueD2DTx*.tcpApp[0].connectPort 1000
param *.ueD2DTx*.tcpApp[0].tOpen uniform(0.010s,0.1s)
param *.ueD2DTx*.tcpApp[0].tSend uniform(0.15s,0.5s)
param *.ueD2DTx[0].mobility.initialX 290m
param *.ueD2DTx[0].mobility.initialY 350m
param *.ueD2DTx[0].tcpApp[*].localPort 1000
param *.ueD2DTx[0].tcpApp[*].sendBytes 1GiB
param *.ueD2DTx[0].tcpApp[*].typename "\"TCPSessionApp\""
param *.ueD2DTx[0].tcpApp[0].active true
param *.ueD2DTx[0].tcpApp[0].connectAddress "\"ueD2DRx[0]\""
param *.ueD2DTx[0].tcpApp[0].connectPort 1000
param *.ueD2DTx[0].tcpApp[0].localAddress "\"ueD2DTx[0]\""
param *.ueD2DTx[0].tcpApp[0].tOpen uniform(0.010s,0.1s)
param *.ueD2DTx[0].tcpApp[0].tSend uniform(0.15s,0.5s)
param *.ueD2DTx[1].mobility.initialX 690m
param *.ueD2DTx[1].mobility.initialY 250m

vector 8  CAIN.server.ppp[0].queue  queueLength:vector  ETV
attr interpolationmode  sample-hold
attr title  "queue length, vector"
vector 9  CAIN.server.ppp[0].ppp  txState:vector  ETV
attr interpolationmode  sample-hold
attr title  "tx state, vector"
vector 24  CAIN.router.ppp[0].queue  queueLength:vector  ETV
attr interpolationmode  sample-hold
attr title  "queue length, vector"
vector 25  CAIN.router.ppp[0].ppp  txState:vector  ETV
attr interpolationmode  sample-hold
attr title  "tx state, vector"
vector 35  CAIN.router.ppp[1].queue  queueLength:vector  ETV
attr interpolationmode  sample-hold
attr title  "queue length, vector"
vector 36  CAIN.router.ppp[1].ppp  txState:vector  ETV
attr interpolationmode  sample-hold
attr title  "tx state, vector"
vector 56  CAIN.pgw.ppp[0].queue  queueLength:vector  ETV
attr interpolationmode  sample-hold
attr title  "queue length, vector"
vector 57  CAIN.pgw.ppp[0].ppp  txState:vector  ETV
attr interpolationmode  sample-hold
attr title  "tx state, vector"
vector 67  CAIN.pgw.ppp[1].queue  queueLength:vector  ETV
attr interpolationmode  sample-hold
attr title  "queue length, vector"
vector 68  CAIN.pgw.ppp[1].ppp  txState:vector  ETV
attr interpolationmode  sample-hold
attr title  "tx state, vector"
vector 78  CAIN.pgw.pppInterface.queue  queueLength:vector  ETV
attr interpolationmode  sample-hold
attr title  "queue length, vector"
vector 79  CAIN.pgw.pppInterface.ppp  txState:vector  ETV
attr interpolationmode  sample-hold
attr title  "tx state, vector"
vector 120  CAIN.eNodeB.pppIf.queue  queueLength:vector  ETV
attr interpolationmode  sample-hold
attr title  "queue length, vector"
vector 121  CAIN.eNodeB.pppIf.ppp  txState:vector  ETV
attr interpolationmode  sample-hold
attr title  "tx state, vector"
vector 131  CAIN.eNodeB.x2ppp[0].queue  queueLength:vector  ETV
attr interpolationmode  sample-hold
attr title  "queue length, vector"
vector 132  CAIN.eNodeB.x2ppp[0].ppp  txState:vector  ETV
attr interpolationmode  sample-hold
attr title  "tx state, vector"
vector 178  CAIN.eNodeB1.pppIf.queue  queueLength:vector  ETV
attr interpolationmode  sample-hold
attr title  "queue length, vector"
vector 179  CAIN.eNodeB1.pppIf.ppp  txState:vector  ETV
attr interpolationmode  sample-hold
attr title  "tx state, vector"
vector 189  CAIN.eNodeB1.x2ppp[0].queue  queueLength:vector  ETV
attr interpolationmode  sample-hold
attr title  "queue length, vector"
vector 190  CAIN.eNodeB1.x2ppp[0].ppp  txState:vector  ETV
attr interpolationmode  sample-hold
attr title  "tx state, vector"
vector 231  CAIN.ueD2DTx[0].nic.phy  servingCell:vector  ETV
attr source  servingCell
attr title  "ID of the serving eNodeB for the UE, vector"
attr unit  ""
vector 263  CAIN.ueD2DTx[1].nic.phy  servingCell:vector  ETV
attr source  servingCell
attr title  "ID of the serving eNodeB for the UE, vector"
attr unit  ""
vector 295  CAIN.ueD2DTx[2].nic.phy  servingCell:vector  ETV
attr source  servingCell
attr title  "ID of the serving eNodeB for the UE, vector"
attr unit  ""
vector 327  CAIN.ueD2DTx[3].nic.phy  servingCell:vector  ETV
attr source  servingCell
attr title  "ID of the serving eNodeB for the UE, vector"
attr unit  ""
vector 359  CAIN.ueD2DTx[4].nic.phy  servingCell:vector  ETV
attr source  servingCell
attr title  "ID of the serving eNodeB for the UE, vector"
attr unit  ""
vector 391  CAIN.ueD2DTx[5].nic.phy  servingCell:vector  ETV
attr source  servingCell
attr title  "ID of the serving eNodeB for the UE, vector"
attr unit  ""
vector 423  CAIN.ueD2DTx[6].nic.phy  servingCell:vector  ETV
attr source  servingCell
attr title  "ID of the serving eNodeB for the UE, vector"
attr unit  ""
vector 455  CAIN.ueD2DTx[7].nic.phy  servingCell:vector  ETV
attr source  servingCell
attr title  "ID of the serving eNodeB for the UE, vector"
attr unit  ""
vector 487  CAIN.ueD2DTx[8].nic.phy  servingCell:vector  ETV
attr source  servingCell
attr title  "ID of the serving eNodeB for the UE, vector"
attr unit  ""
vector 519  CAIN.ueD2DTx[9].nic.phy  servingCell:vector  ETV
attr source  servingCell
attr title  "ID of the serving eNodeB for the UE, vector"
attr unit  ""
vector 551  CAIN.ueD2DTx[10].nic.phy  servingCell:vector  ETV
attr source  servingCell
attr title  "ID of the serving eNodeB for the UE, vector"
attr unit  ""
vector 583  CAIN.ueD2DTx[11].nic.phy  servingCell:vector  ETV
attr source  servingCell
attr title  "ID of the serving eNodeB for the UE, vector"
attr unit  ""
vector 615  CAIN.ueD2DTx[12].nic.phy  servingCell:vector  ETV
attr source  servingCell
attr title  "ID of the serving eNodeB for the UE, vector"
attr unit  ""
vector 647  CAIN.ueD2DTx[13].nic.phy  servingCell:vector  ETV
attr source  servingCell
attr title  "ID of the serving eNodeB for the UE, vector"
attr unit  ""
vector 679  CAIN.ueD2DTx[14].nic.phy  servingCell:vector  ETV
attr source  servingCell
attr title  "ID of the serving eNodeB for the UE, vector"
attr unit  ""
vector 711  CAIN.ueD2DTx[15].nic.phy  servingCell:vector  ETV
attr source  servingCell
attr title  "ID of the serving eNodeB for the UE, vector"
attr unit  ""
vector 743  CAIN.ueD2DTx[16].nic.phy  servingCell:vector  ETV
attr source  servingCell
attr title  "ID of the serving eNodeB for the UE, vector"
attr unit  ""
vector 775  CAIN.ueD2DTx[17].nic.phy  servingCell:vector  ETV
attr source  servingCell
attr title  "ID of the serving eNodeB for the UE, vector"
attr unit  ""
vector 807  CAIN.ueD2DTx[18].nic.phy  servingCell:vector  ETV
attr source  servingCell
attr title  "ID of the serving eNodeB for the UE, vector"
attr unit  ""
vector 839  CAIN.ueD2DTx[19].nic.phy  servingCell:vector  ETV
attr source  servingCell
attr title  "ID of the serving eNodeB for the UE, vector"
attr unit  ""
vector 863  CAIN.eNodeB.sctp  "Throughput of Association 3"  ETV
vector 885  CAIN.eNodeB1.sctp  "Throughput of Association 4"  ETV
vector 907  CAIN.eNodeB.sctp  "Throughput of Association 1"  ETV
vector 927  CAIN.eNodeB.sctp  "Fast Recovery State 1:10.0.5.2"  ETV
vector 956  CAIN.eNodeB1.sctp  "Throughput of Association 2"  ETV
vector 976  CAIN.eNodeB1.sctp  "Fast Recovery State 2:10.0.5.1"  ETV
vector 128  CAIN.eNodeB.x2ppp[0].queue  rcvdPk:vector(packetBytes)  ETV
attr interpolationmode  none
attr title  "received packets, vector(packetBytes)"
vector 130  CAIN.eNodeB.x2ppp[0].queue  queueingTime:vector  ETV
attr interpolationmode  none
attr title  "queueing time, vector"
vector 186  CAIN.eNodeB1.x2ppp[0].queue  rcvdPk:vector(packetBytes)  ETV
attr interpolationmode  none
attr title  "received packets, vector(packetBytes)"
vector 188  CAIN.eNodeB1.x2ppp[0].queue  queueingTime:vector  ETV
attr interpolationmode  none
attr title  "queueing time, vector"
vector 137  CAIN.eNodeB.x2ppp[0].ppp  rcvdPkFromHL:vector(packetBytes)  ETV
attr interpolationmode  none
attr source  packetReceivedFromUpper
attr title  "packets received from higher layer, vector(packetBytes)"
vector 133  CAIN.eNodeB.x2ppp[0].ppp  txPk:vector(packetBytes)  ETV
attr interpolationmode  none
attr source  packetSentToLower
attr title  "packets transmitted, vector(packetBytes)"
vector 195  CAIN.eNodeB1.x2ppp[0].ppp  rcvdPkFromHL:vector(packetBytes)  ETV
attr interpolationmode  none
attr source  packetReceivedFromUpper
attr title  "packets received from higher layer, vector(packetBytes)"
vector 191  CAIN.eNodeB1.x2ppp[0].ppp  txPk:vector(packetBytes)  ETV
attr interpolationmode  none
attr source  packetSentToLower
attr title  "packets transmitted, vector(packetBytes)"
vector 192  CAIN.eNodeB1.x2ppp[0].ppp  rxPkOk:vector(packetBytes)  ETV
attr interpolationmode  none
attr source  rxPkOk
attr title  "packets received OK, vector(packetBytes)"
vector 196  CAIN.eNodeB1.x2ppp[0].ppp  passedUpPk:vector(packetBytes)  ETV
attr interpolationmode  none
attr source  packetSentToUpper
attr title  "packets passed to higher layer, vector(packetBytes)"
vector 134  CAIN.eNodeB.x2ppp[0].ppp  rxPkOk:vector(packetBytes)  ETV
attr interpolationmode  none
attr source  rxPkOk
attr title  "packets received OK, vector(packetBytes)"
vector 138  CAIN.eNodeB.x2ppp[0].ppp  passedUpPk:vector(packetBytes)  ETV
attr interpolationmode  none
attr source  packetSentToUpper
attr title  "packets passed to higher layer, vector(packetBytes)"
vector 1005  CAIN.eNodeB1.sctp  "Throughput of Association 4"  ETV
vector 882  CAIN.eNodeB1.sctp  "Peer Rwnd 4"  ETV
vector 1025  CAIN.eNodeB1.sctp  "Fast Recovery State 5:10.0.4.1"  ETV
vector 1052  CAIN.eNodeB1.sctp  "Fast Recovery State 5:10.0.2.2"  ETV
vector 1079  CAIN.eNodeB1.sctp  "Fast Recovery State 5:10.0.5.1"  ETV
vector 1108  CAIN.eNodeB.sctp  "Throughput of Association 3"  ETV
vector 860  CAIN.eNodeB.sctp  "Peer Rwnd 3"  ETV
vector 1128  CAIN.eNodeB.sctp  "Fast Recovery State 6:10.0.4.2"  ETV
vector 1155  CAIN.eNodeB.sctp  "Fast Recovery State 6:10.0.3.2"  ETV
vector 1182  CAIN.eNodeB.sctp  "Fast Recovery State 6:10.0.5.2"  ETV
vector 904  CAIN.eNodeB.sctp  "Peer Rwnd 1"  ETV
vector 1209  CAIN.eNodeB.sctp  "Fast Recovery State 1:10.0.4.2"  ETV
vector 1236  CAIN.eNodeB.sctp  "Fast Recovery State 1:10.0.3.2"  ETV
vector 953  CAIN.eNodeB1.sctp  "Peer Rwnd 2"  ETV
vector 1263  CAIN.eNodeB1.sctp  "Fast Recovery State 2:10.0.4.1"  ETV
vector 1290  CAIN.eNodeB1.sctp  "Fast Recovery State 2:10.0.2.2"  ETV
vector 1035  CAIN.eNodeB1.sctp  "Slow Start Threshold 5:10.0.2.2"  ETV
vector 1036  CAIN.eNodeB1.sctp  "Congestion Window 5:10.0.2.2"  ETV
vector 1037  CAIN.eNodeB1.sctp  "Bandwidth 5:10.0.2.2"  ETV
vector 1040  CAIN.eNodeB1.sctp  "HB Sent 5:10.0.2.2"  ETV
vector 1033  CAIN.eNodeB1.sctp  "RTO 5:10.0.2.2"  ETV
vector 1008  CAIN.eNodeB1.sctp  "Slow Start Threshold 5:10.0.4.1"  ETV
vector 1009  CAIN.eNodeB1.sctp  "Congestion Window 5:10.0.4.1"  ETV
vector 1010  CAIN.eNodeB1.sctp  "Bandwidth 5:10.0.4.1"  ETV
vector 1013  CAIN.eNodeB1.sctp  "HB Sent 5:10.0.4.1"  ETV
vector 1006  CAIN.eNodeB1.sctp  "RTO 5:10.0.4.1"  ETV
vector 1062  CAIN.eNodeB1.sctp  "Slow Start Threshold 5:10.0.5.1"  ETV
vector 1063  CAIN.eNodeB1.sctp  "Congestion Window 5:10.0.5.1"  ETV
vector 1064  CAIN.eNodeB1.sctp  "Bandwidth 5:10.0.5.1"  ETV
vector 1060  CAIN.eNodeB1.sctp  "RTO 5:10.0.5.1"  ETV
vector 1138  CAIN.eNodeB.sctp  "Slow Start Threshold 6:10.0.3.2"  ETV
vector 1139  CAIN.eNodeB.sctp  "Congestion Window 6:10.0.3.2"  ETV
vector 1140  CAIN.eNodeB.sctp  "Bandwidth 6:10.0.3.2"  ETV
vector 1143  CAIN.eNodeB.sctp  "HB Sent 6:10.0.3.2"  ETV
vector 1136  CAIN.eNodeB.sctp  "RTO 6:10.0.3.2"  ETV
vector 1111  CAIN.eNodeB.sctp  "Slow Start Threshold 6:10.0.4.2"  ETV
vector 1112  CAIN.eNodeB.sctp  "Congestion Window 6:10.0.4.2"  ETV
vector 1113  CAIN.eNodeB.sctp  "Bandwidth 6:10.0.4.2"  ETV
vector 1116  CAIN.eNodeB.sctp  "HB Sent 6:10.0.4.2"  ETV
vector 1109  CAIN.eNodeB.sctp  "RTO 6:10.0.4.2"  ETV
vector 1165  CAIN.eNodeB.sctp  "Slow Start Threshold 6:10.0.5.2"  ETV
vector 1166  CAIN.eNodeB.sctp  "Congestion Window 6:10.0.5.2"  ETV
vector 1167  CAIN.eNodeB.sctp  "Bandwidth 6:10.0.5.2"  ETV
vector 1163  CAIN.eNodeB.sctp  "RTO 6:10.0.5.2"  ETV
vector 916  CAIN.eNodeB.sctp  "HB ACK Sent 1:10.0.5.2"  ETV
vector 917  CAIN.eNodeB.sctp  "HB Received 1:10.0.5.2"  ETV
vector 965  CAIN.eNodeB1.sctp  "HB ACK Sent 2:10.0.5.1"  ETV
vector 966  CAIN.eNodeB1.sctp  "HB Received 2:10.0.5.1"  ETV
vector 1219  CAIN.eNodeB.sctp  "Slow Start Threshold 1:10.0.3.2"  ETV
vector 1220  CAIN.eNodeB.sctp  "Congestion Window 1:10.0.3.2"  ETV
vector 1221  CAIN.eNodeB.sctp  "Bandwidth 1:10.0.3.2"  ETV
vector 1224  CAIN.eNodeB.sctp  "HB Sent 1:10.0.3.2"  ETV
vector 1217  CAIN.eNodeB.sctp  "RTO 1:10.0.3.2"  ETV
vector 1192  CAIN.eNodeB.sctp  "Slow Start Threshold 1:10.0.4.2"  ETV
vector 1193  CAIN.eNodeB.sctp  "Congestion Window 1:10.0.4.2"  ETV
vector 1194  CAIN.eNodeB.sctp  "Bandwidth 1:10.0.4.2"  ETV
vector 1197  CAIN.eNodeB.sctp  "HB Sent 1:10.0.4.2"  ETV
vector 1190  CAIN.eNodeB.sctp  "RTO 1:10.0.4.2"  ETV
vector 910  CAIN.eNodeB.sctp  "Slow Start Threshold 1:10.0.5.2"  ETV
vector 911  CAIN.eNodeB.sctp  "Congestion Window 1:10.0.5.2"  ETV
vector 912  CAIN.eNodeB.sctp  "Bandwidth 1:10.0.5.2"  ETV
vector 908  CAIN.eNodeB.sctp  "RTO 1:10.0.5.2"  ETV
vector 1273  CAIN.eNodeB1.sctp  "Slow Start Threshold 2:10.0.2.2"  ETV
vector 1274  CAIN.eNodeB1.sctp  "Congestion Window 2:10.0.2.2"  ETV
vector 1275  CAIN.eNodeB1.sctp  "Bandwidth 2:10.0.2.2"  ETV
vector 1278  CAIN.eNodeB1.sctp  "HB Sent 2:10.0.2.2"  ETV
vector 1271  CAIN.eNodeB1.sctp  "RTO 2:10.0.2.2"  ETV
vector 1246  CAIN.eNodeB1.sctp  "Slow Start Threshold 2:10.0.4.1"  ETV
vector 1247  CAIN.eNodeB1.sctp  "Congestion Window 2:10.0.4.1"  ETV
vector 1248  CAIN.eNodeB1.sctp  "Bandwidth 2:10.0.4.1"  ETV
vector 1251  CAIN.eNodeB1.sctp  "HB Sent 2:10.0.4.1"  ETV
vector 1244  CAIN.eNodeB1.sctp  "RTO 2:10.0.4.1"  ETV
vector 959  CAIN.eNodeB1.sctp  "Slow Start Threshold 2:10.0.5.1"  ETV
vector 960  CAIN.eNodeB1.sctp  "Congestion Window 2:10.0.5.1"  ETV
vector 961  CAIN.eNodeB1.sctp  "Bandwidth 2:10.0.5.1"  ETV
vector 957  CAIN.eNodeB1.sctp  "RTO 2:10.0.5.1"  ETV
vector 1173  CAIN.eNodeB.sctp  "HB ACK Received 6:10.0.5.2"  ETV
vector 1164  CAIN.eNodeB.sctp  "RTT 6:10.0.5.2"  ETV
vector 1070  CAIN.eNodeB1.sctp  "HB ACK Received 5:10.0.5.1"  ETV
vector 1061  CAIN.eNodeB1.sctp  "RTT 5:10.0.5.1"  ETV
vector 1171  CAIN.eNodeB.sctp  "HB ACK Sent 6:10.0.5.2"  ETV
vector 1172  CAIN.eNodeB.sctp  "HB Received 6:10.0.5.2"  ETV
vector 1068  CAIN.eNodeB1.sctp  "HB ACK Sent 5:10.0.5.1"  ETV
vector 1069  CAIN.eNodeB1.sctp  "HB Received 5:10.0.5.1"  ETV
vector 967  CAIN.eNodeB1.sctp  "HB ACK Received 2:10.0.5.1"  ETV
vector 958  CAIN.eNodeB1.sctp  "RTT 2:10.0.5.1"  ETV
vector 918  CAIN.eNodeB.sctp  "HB ACK Received 1:10.0.5.2"  ETV
vector 909  CAIN.eNodeB.sctp  "RTT 1:10.0.5.2"  ETV
vector 96  CAIN.eNodeB.nic.mac  receivedPacketFromLowerLayer:vector(packetBytes)  ETV
attr interpolationmode  none
attr source  receivedPacketFromLowerLayer
vector 1305  CAIN.eNodeB.sctp  "SendQueue of Association 6"  ETV
vector 1168  CAIN.eNodeB.sctp  "TSN Sent 6:10.0.5.2"  ETV
vector 1175  CAIN.eNodeB.sctp  "Outstanding Bytes 6:10.0.5.2"  ETV
vector 848  CAIN.eNodeB.sctp  "Outstanding Bytes 3:Total"  ETV
vector 1174  CAIN.eNodeB.sctp  "Queued Sent Bytes 6:10.0.5.2"  ETV
vector 847  CAIN.eNodeB.sctp  "Queued Sent Bytes 3:Total"  ETV
vector 963  CAIN.eNodeB1.sctp  "TSN Received 2:10.0.5.1"  ETV
vector 939  CAIN.eNodeB1.sctp  "Queued Received Bytes 2:Total"  ETV
vector 935  CAIN.eNodeB1.sctp  "Advertised Receiver Window 2"  ETV
vector 944  CAIN.eNodeB1.sctp  "Number of Total Gap Blocks Stored 2"  ETV
vector 945  CAIN.eNodeB1.sctp  "Number of Revokable Gap Blocks Stored 2"  ETV
vector 946  CAIN.eNodeB1.sctp  "Number of Non-Revokable Gap Blocks Stored 2"  ETV
vector 947  CAIN.eNodeB1.sctp  "Number of Duplicate TSNs Stored 2"  ETV
vector 951  CAIN.eNodeB1.sctp  "Length of SACK Sent 2"  ETV
vector 948  CAIN.eNodeB1.sctp  "Number of Revokable Gap Blocks Sent 2"  ETV
vector 949  CAIN.eNodeB1.sctp  "Number of Non-Revokable Gap Blocks Sent 2"  ETV
vector 950  CAIN.eNodeB1.sctp  "Number of Duplicate TSNs Sent 2"  ETV
vector 955  CAIN.eNodeB1.sctp  "End to End Delay of Association 2"  ETV
vector 199  CAIN.eNodeB1.x2App[0].client  rcvdPk:vector(packetBytes)  ETV
attr interpolationmode  none
attr source  rcvdPk
attr title  "packets received, vector(packetBytes)"
vector 1304  CAIN.eNodeB.sctp  "Number of Gap Blocks in Last SACK of Association 6"  ETV
vector 849  CAIN.eNodeB.sctp  "Number of Revokable Gap Blocks in SACK 3"  ETV
vector 850  CAIN.eNodeB.sctp  "Number of Non-Revokable Gap Blocks in SACK 3"  ETV
vector 1185  CAIN.eNodeB.sctp  "TSN Acked CumAck 6:10.0.5.2"  ETV
vector 1151  CAIN.eNodeB.sctp  "Number of Gap Acked Chunks in Last SACK 6:10.0.3.2"  ETV
vector 1152  CAIN.eNodeB.sctp  "Number of Non-Revokable Gap Acked Chunks in Last SACK 6:10.0.3.2"  ETV
vector 1153  CAIN.eNodeB.sctp  "Number of Gap Missed Chunks in Last SACK 6:10.0.3.2"  ETV
vector 1124  CAIN.eNodeB.sctp  "Number of Gap Acked Chunks in Last SACK 6:10.0.4.2"  ETV
vector 1125  CAIN.eNodeB.sctp  "Number of Non-Revokable Gap Acked Chunks in Last SACK 6:10.0.4.2"  ETV
vector 1126  CAIN.eNodeB.sctp  "Number of Gap Missed Chunks in Last SACK 6:10.0.4.2"  ETV
vector 1178  CAIN.eNodeB.sctp  "Number of Gap Acked Chunks in Last SACK 6:10.0.5.2"  ETV
vector 1179  CAIN.eNodeB.sctp  "Number of Non-Revokable Gap Acked Chunks in Last SACK 6:10.0.5.2"  ETV
vector 1180  CAIN.eNodeB.sctp  "Number of Gap Missed Chunks in Last SACK 6:10.0.5.2"  ETV
vector 859  CAIN.eNodeB.sctp  "Arwnd in Last SACK 3"  ETV
vector 1187  CAIN.eNodeB.sctp  "TSN PseudoCumAck 6:10.0.5.2"  ETV
vector 1188  CAIN.eNodeB.sctp  "TSN RTXPseudoCumAck 6:10.0.5.2"  ETV
vector 1181  CAIN.eNodeB.sctp  "Partial Bytes Acked 6:10.0.5.2"  ETV
vector 1333  CAIN.ueD2DTx[16].tcp  tcpRcvQueueBytes  ETV
vector 1320  CAIN.ueD2DTx[16].tcp  "advertised window"  ETV
vector 1319  CAIN.ueD2DTx[16].tcp  "receive window"  ETV
vector 1322  CAIN.ueD2DTx[16].tcp  "sent ack"  ETV
vector 717  CAIN.ueD2DTx[16].nic.pdcpRrc  receivedPacketFromUpperLayer:vector(packetBytes)  ETV
attr interpolationmode  none
attr source  receivedPacketFromUpperLayer
vector 720  CAIN.ueD2DTx[16].nic.pdcpRrc  sentPacketToLowerLayer:vector(packetBytes)  ETV
attr interpolationmode  none
attr source  sentPacketToLowerLayer
vector 721  CAIN.ueD2DTx[16].nic.mac  receivedPacketFromUpperLayer:vector(packetBytes)  ETV
attr interpolationmode  none
attr source  receivedPacketFromUpperLayer
vector 731  CAIN.ueD2DTx[16].nic.mac  CainHopMessageSent:vector  ETV
attr interpolationmode  none
attr title  "# of Sent CAIN hop message, vector"
vector 724  CAIN.ueD2DTx[16].nic.mac  sentPacketToLowerLayer:vector(packetBytes)  ETV
attr interpolationmode  none
attr source  sentPacketToLowerLayer
vector 210  CAIN.ueD2DTx[0].nic.mac  receivedPacketFromLowerLayer:vector(packetBytes)  ETV
attr interpolationmode  none
attr source  receivedPacketFromLowerLayer
vector 212  CAIN.ueD2DTx[0].nic.mac  sentPacketToLowerLayer:vector(packetBytes)  ETV
attr interpolationmode  none
attr source  sentPacketToLowerLayer
vector 466  CAIN.ueD2DTx[8].nic.mac  receivedPacketFromLowerLayer:vector(packetBytes)  ETV
attr interpolationmode  none
attr source  receivedPacketFromLowerLayer
vector 468  CAIN.ueD2DTx[8].nic.mac  sentPacketToLowerLayer:vector(packetBytes)  ETV
attr interpolationmode  none
attr source  sentPacketToLowerLayer
vector 111  CAIN.eNodeB.nic.mac  racpkt:vector  ETV
attr interpolationmode  none
attr title  "eNB received racpkt message, vector"
vector 112  CAIN.eNodeB.nic.mac  racDistanceSignal:vector  ETV
attr interpolationmode  none
attr title  "Rac distance to enb, vector"
vector 113  CAIN.eNodeB.nic.mac  racServedDevsSignal:vector  ETV
attr interpolationmode  none
attr title  "# of devices served on rac arriavall, vector"
vector 106  CAIN.eNodeB.nic.mac  DistanceSignal:vector  ETV
attr interpolationmode  none
attr title  "Distance to enb, vector"
vector 101  CAIN.eNodeB.nic.mac  CainHopMessage:vector  ETV
attr interpolationmode  none
attr title  "eNB received CAIN hop message, vector"
vector 98  CAIN.eNodeB.nic.mac  sentPacketToLowerLayer:vector(packetBytes)  ETV
attr interpolationmode  none
attr source  sentPacketToLowerLayer
vector 473  CAIN.ueD2DTx[8].nic.mac  DropedHopMessage:vector  ETV
attr interpolationmode  none
attr title  "Droped Hop CAIN message due to RB not available, vector"
vector 1357  CAIN.ueD2DTx[3].tcp  tcpRcvQueueBytes  ETV
vector 1344  CAIN.ueD2DTx[3].tcp  "advertised window"  ETV
vector 1343  CAIN.ueD2DTx[3].tcp  "receive window"  ETV
vector 1346  CAIN.ueD2DTx[3].tcp  "sent ack"  ETV
vector 301  CAIN.ueD2DTx[3].nic.pdcpRrc  receivedPacketFromUpperLayer:vector(packetBytes)  ETV
attr interpolationmode  none
attr source  receivedPacketFromUpperLayer
vector 304  CAIN.ueD2DTx[3].nic.pdcpRrc  sentPacketToLowerLayer:vector(packetBytes)  ETV
attr interpolationmode  none
attr source  sentPacketToLowerLayer
vector 305  CAIN.ueD2DTx[3].nic.mac  receivedPacketFromUpperLayer:vector(packetBytes)  ETV
attr interpolationmode  none
attr source  receivedPacketFromUpperLayer
vector 315  CAIN.ueD2DTx[3].nic.mac  CainHopMessageSent:vector  ETV
attr interpolationmode  none
attr title  "# of Sent CAIN hop message, vector"
vector 308  CAIN.ueD2DTx[3].nic.mac  sentPacketToLowerLayer:vector(packetBytes)  ETV
attr interpolationmode  none
attr source  sentPacketToLowerLayer
vector 1381  CAIN.ueD2DTx[7].tcp  tcpRcvQueueBytes  ETV
vector 1368  CAIN.ueD2DTx[7].tcp  "advertised window"  ETV
vector 1367  CAIN.ueD2DTx[7].tcp  "receive window"  ETV
vector 1370  CAIN.ueD2DTx[7].tcp  "sent ack"  ETV
vector 429  CAIN.ueD2DTx[7].nic.pdcpRrc  receivedPacketFromUpperLayer:vector(packetBytes)  ETV
attr interpolationmode  none
attr source  receivedPacketFromUpperLayer
vector 432  CAIN.ueD2DTx[7].nic.pdcpRrc  sentPacketToLowerLayer:vector(packetBytes)  ETV
attr interpolationmode  none
attr source  sentPacketToLowerLayer
vector 433  CAIN.ueD2DTx[7].nic.mac  receivedPacketFromUpperLayer:vector(packetBytes)  ETV
attr interpolationmode  none
attr source  receivedPacketFromUpperLayer
vector 443  CAIN.ueD2DTx[7].nic.mac  CainHopMessageSent:vector  ETV
attr interpolationmode  none
attr title  "# of Sent CAIN hop message, vector"
vector 436  CAIN.ueD2DTx[7].nic.mac  sentPacketToLowerLayer:vector(packetBytes)  ETV
attr interpolationmode  none
attr source  sentPacketToLowerLayer
vector 1405  CAIN.ueD2DTx[18].tcp  tcpRcvQueueBytes  ETV
vector 1392  CAIN.ueD2DTx[18].tcp  "advertised window"  ETV
vector 1391  CAIN.ueD2DTx[18].tcp  "receive window"  ETV
vector 1394  CAIN.ueD2DTx[18].tcp  "sent ack"  ETV
vector 781  CAIN.ueD2DTx[18].nic.pdcpRrc  receivedPacketFromUpperLayer:vector(packetBytes)  ETV
attr interpolationmode  none
attr source  receivedPacketFromUpperLayer
vector 784  CAIN.ueD2DTx[18].nic.pdcpRrc  sentPacketToLowerLayer:vector(packetBytes)  ETV
attr interpolationmode  none
attr source  sentPacketToLowerLayer
vector 785  CAIN.ueD2DTx[18].nic.mac  receivedPacketFromUpperLayer:vector(packetBytes)  ETV
attr interpolationmode  none
attr source  receivedPacketFromUpperLayer
vector 795  CAIN.ueD2DTx[18].nic.mac  CainHopMessageSent:vector  ETV
attr interpolationmode  none
attr title  "# of Sent CAIN hop message, vector"
vector 788  CAIN.ueD2DTx[18].nic.mac  sentPacketToLowerLayer:vector(packetBytes)  ETV
attr interpolationmode  none
attr source  sentPacketToLowerLayer
vector 338  CAIN.ueD2DTx[4].nic.mac  receivedPacketFromLowerLayer:vector(packetBytes)  ETV
attr interpolationmode  none
attr source  receivedPacketFromLowerLayer
vector 340  CAIN.ueD2DTx[4].nic.mac  sentPacketToLowerLayer:vector(packetBytes)  ETV
attr interpolationmode  none
attr source  sentPacketToLowerLayer
vector 594  CAIN.ueD2DTx[12].nic.mac  receivedPacketFromLowerLayer:vector(packetBytes)  ETV
attr interpolationmode  none
attr source  receivedPacketFromLowerLayer
vector 596  CAIN.ueD2DTx[12].nic.mac  sentPacketToLowerLayer:vector(packetBytes)  ETV
attr interpolationmode  none
attr source  sentPacketToLowerLayer
vector 1429  CAIN.ueD2DTx[10].tcp  tcpRcvQueueBytes  ETV
vector 1416  CAIN.ueD2DTx[10].tcp  "advertised window"  ETV
vector 1415  CAIN.ueD2DTx[10].tcp  "receive window"  ETV
vector 1418  CAIN.ueD2DTx[10].tcp  "sent ack"  ETV
vector 525  CAIN.ueD2DTx[10].nic.pdcpRrc  receivedPacketFromUpperLayer:vector(packetBytes)  ETV
attr interpolationmode  none
attr source  receivedPacketFromUpperLayer
vector 528  CAIN.ueD2DTx[10].nic.pdcpRrc  sentPacketToLowerLayer:vector(packetBytes)  ETV
attr interpolationmode  none
attr source  sentPacketToLowerLayer
vector 529  CAIN.ueD2DTx[10].nic.mac  receivedPacketFromUpperLayer:vector(packetBytes)  ETV
attr interpolationmode  none
attr source  receivedPacketFromUpperLayer
vector 539  CAIN.ueD2DTx[10].nic.mac  CainHopMessageSent:vector  ETV
attr interpolationmode  none
attr title  "# of Sent CAIN hop message, vector"
vector 532  CAIN.ueD2DTx[10].nic.mac  sentPacketToLowerLayer:vector(packetBytes)  ETV
attr interpolationmode  none
attr source  sentPacketToLowerLayer
vector 601  CAIN.ueD2DTx[12].nic.mac  DropedHopMessage:vector  ETV
attr interpolationmode  none
attr title  "Droped Hop CAIN message due to RB not available, vector"
vector 1453  CAIN.ueD2DTx[8].tcp  tcpRcvQueueBytes  ETV
vector 1440  CAIN.ueD2DTx[8].tcp  "advertised window"  ETV
vector 1439  CAIN.ueD2DTx[8].tcp  "receive window"  ETV
vector 1442  CAIN.ueD2DTx[8].tcp  "sent ack"  ETV
vector 461  CAIN.ueD2DTx[8].nic.pdcpRrc  receivedPacketFromUpperLayer:vector(packetBytes)  ETV
attr interpolationmode  none
attr source  receivedPacketFromUpperLayer
vector 464  CAIN.ueD2DTx[8].nic.pdcpRrc  sentPacketToLowerLayer:vector(packetBytes)  ETV
attr interpolationmode  none
attr source  sentPacketToLowerLayer
vector 465  CAIN.ueD2DTx[8].nic.mac  receivedPacketFromUpperLayer:vector(packetBytes)  ETV
attr interpolationmode  none
attr source  receivedPacketFromUpperLayer
vector 1477  CAIN.ueD2DTx[9].tcp  tcpRcvQueueBytes  ETV
vector 1464  CAIN.ueD2DTx[9].tcp  "advertised window"  ETV
vector 1463  CAIN.ueD2DTx[9].tcp  "receive window"  ETV
vector 1466  CAIN.ueD2DTx[9].tcp  "sent ack"  ETV
vector 493  CAIN.ueD2DTx[9].nic.pdcpRrc  receivedPacketFromUpperLayer:vector(packetBytes)  ETV
attr interpolationmode  none
attr source  receivedPacketFromUpperLayer
vector 496  CAIN.ueD2DTx[9].nic.pdcpRrc  sentPacketToLowerLayer:vector(packetBytes)  ETV
attr interpolationmode  none
attr source  sentPacketToLowerLayer
vector 497  CAIN.ueD2DTx[9].nic.mac  receivedPacketFromUpperLayer:vector(packetBytes)  ETV
attr interpolationmode  none
attr source  receivedPacketFromUpperLayer
vector 500  CAIN.ueD2DTx[9].nic.mac  sentPacketToLowerLayer:vector(packetBytes)  ETV
attr interpolationmode  none
attr source  sentPacketToLowerLayer
vector 1501  CAIN.ueD2DTx[14].tcp  tcpRcvQueueBytes  ETV
vector 1488  CAIN.ueD2DTx[14].tcp  "advertised window"  ETV
vector 1487  CAIN.ueD2DTx[14].tcp  "receive window"  ETV
vector 1490  CAIN.ueD2DTx[14].tcp  "sent ack"  ETV
vector 653  CAIN.ueD2DTx[14].nic.pdcpRrc  receivedPacketFromUpperLayer:vector(packetBytes)  ETV
attr interpolationmode  none
attr source  receivedPacketFromUpperLayer
vector 656  CAIN.ueD2DTx[14].nic.pdcpRrc  sentPacketToLowerLayer:vector(packetBytes)  ETV
attr interpolationmode  none
attr source  sentPacketToLowerLayer
vector 657  CAIN.ueD2DTx[14].nic.mac  receivedPacketFromUpperLayer:vector(packetBytes)  ETV
attr interpolationmode  none
attr source  receivedPacketFromUpperLayer
vector 667  CAIN.ueD2DTx[14].nic.mac  CainHopMessageSent:vector  ETV
attr interpolationmode  none
attr title  "# of Sent CAIN hop message, vector"
vector 660  CAIN.ueD2DTx[14].nic.mac  sentPacketToLowerLayer:vector(packetBytes)  ETV
attr interpolationmode  none
attr source  sentPacketToLowerLayer
vector 626  CAIN.ueD2DTx[13].nic.mac  receivedPacketFromLowerLayer:vector(packetBytes)  ETV
attr interpolationmode  none
attr source  receivedPacketFromLowerLayer
vector 628  CAIN.ueD2DTx[13].nic.mac  sentPacketToLowerLayer:vector(packetBytes)  ETV
attr interpolationmode  none
attr source  sentPacketToLowerLayer
vector 498  CAIN.ueD2DTx[9].nic.mac  receivedPacketFromLowerLayer:vector(packetBytes)  ETV
attr interpolationmode  none
attr source  receivedPacketFromLowerLayer
vector 818  CAIN.ueD2DTx[19].nic.mac  receivedPacketFromLowerLayer:vector(packetBytes)  ETV
attr interpolationmode  none
attr source  receivedPacketFromLowerLayer
vector 820  CAIN.ueD2DTx[19].nic.mac  sentPacketToLowerLayer:vector(packetBytes)  ETV
attr interpolationmode  none
attr source  sentPacketToLowerLayer
vector 467  CAIN.ueD2DTx[8].nic.mac  sentPacketToUpperLayer:vector(packetBytes)  ETV
attr interpolationmode  none
attr source  sentPacketToUpperLayer
vector 499  CAIN.ueD2DTx[9].nic.mac  sentPacketToUpperLayer:vector(packetBytes)  ETV
attr interpolationmode  none
attr source  sentPacketToUpperLayer
vector 115  CAIN.eNodeB.nic.phy  averageCqiUlvect:vector  ETV
attr source  averageCqiUlvect
attr title  "Average Cqi reported in UL, vector"
attr unit  cqi
vector 825  CAIN.ueD2DTx[19].nic.mac  DropedHopMessage:vector  ETV
attr interpolationmode  none
attr title  "Droped Hop CAIN message due to RB not available, vector"
vector 109  CAIN.eNodeB.nic.mac  ServedHopDevs:vector  ETV
attr interpolationmode  none
attr title  "# of devices served on hop forwarding, vector"
vector 97  CAIN.eNodeB.nic.mac  sentPacketToUpperLayer:vector(packetBytes)  ETV
attr interpolationmode  none
attr source  sentPacketToUpperLayer
vector 99  CAIN.eNodeB.nic.mac  measuredItbs:vector  ETV
attr source  measuredItbs
attr title  "TBS index, vector"
attr unit  ""
vector 690  CAIN.ueD2DTx[15].nic.mac  receivedPacketFromLowerLayer:vector(packetBytes)  ETV
attr interpolationmode  none
attr source  receivedPacketFromLowerLayer
vector 692  CAIN.ueD2DTx[15].nic.mac  sentPacketToLowerLayer:vector(packetBytes)  ETV
attr interpolationmode  none
attr source  sentPacketToLowerLayer
vector 1301  CAIN.eNodeB1.sctp  "SendQueue of Association 5"  ETV
vector 1065  CAIN.eNodeB1.sctp  "TSN Sent 5:10.0.5.1"  ETV
vector 1072  CAIN.eNodeB1.sctp  "Outstanding Bytes 5:10.0.5.1"  ETV
vector 870  CAIN.eNodeB1.sctp  "Outstanding Bytes 4:Total"  ETV
vector 1071  CAIN.eNodeB1.sctp  "Queued Sent Bytes 5:10.0.5.1"  ETV
vector 869  CAIN.eNodeB1.sctp  "Queued Sent Bytes 4:Total"  ETV
vector 92  CAIN.eNodeB.nic.pdcpRrc  receivedPacketFromLowerLayer:vector(packetBytes)  ETV
attr interpolationmode  none
attr source  receivedPacketFromLowerLayer
vector 93  CAIN.eNodeB.nic.pdcpRrc  sentPacketToUpperLayer:vector(packetBytes)  ETV
attr interpolationmode  none
attr source  sentPacketToUpperLayer
vector 86  CAIN.eNodeB.udp  sentPk:vector(packetBytes)  ETV
attr interpolationmode  none
attr source  sentPk
attr title  "packets sent, vector(packetBytes)"
vector 117  CAIN.eNodeB.pppIf.queue  rcvdPk:vector(packetBytes)  ETV
attr interpolationmode  none
attr title  "received packets, vector(packetBytes)"
vector 119  CAIN.eNodeB.pppIf.queue  queueingTime:vector  ETV
attr interpolationmode  none
attr title  "queueing time, vector"
vector 126  CAIN.eNodeB.pppIf.ppp  rcvdPkFromHL:vector(packetBytes)  ETV
attr interpolationmode  none
attr source  packetReceivedFromUpper
attr title  "packets received from higher layer, vector(packetBytes)"
vector 122  CAIN.eNodeB.pppIf.ppp  txPk:vector(packetBytes)  ETV
attr interpolationmode  none
attr source  packetSentToLower
attr title  "packets transmitted, vector(packetBytes)"
vector 697  CAIN.ueD2DTx[15].nic.mac  DropedHopMessage:vector  ETV
attr interpolationmode  none
attr title  "Droped Hop CAIN message due to RB not available, vector"
vector 914  CAIN.eNodeB.sctp  "TSN Received 1:10.0.5.2"  ETV
vector 890  CAIN.eNodeB.sctp  "Queued Received Bytes 1:Total"  ETV
vector 886  CAIN.eNodeB.sctp  "Advertised Receiver Window 1"  ETV
vector 895  CAIN.eNodeB.sctp  "Number of Total Gap Blocks Stored 1"  ETV
vector 896  CAIN.eNodeB.sctp  "Number of Revokable Gap Blocks Stored 1"  ETV
vector 897  CAIN.eNodeB.sctp  "Number of Non-Revokable Gap Blocks Stored 1"  ETV
vector 898  CAIN.eNodeB.sctp  "Number of Duplicate TSNs Stored 1"  ETV
vector 902  CAIN.eNodeB.sctp  "Length of SACK Sent 1"  ETV
vector 899  CAIN.eNodeB.sctp  "Number of Revokable Gap Blocks Sent 1"  ETV
vector 900  CAIN.eNodeB.sctp  "Number of Non-Revokable Gap Blocks Sent 1"  ETV
vector 901  CAIN.eNodeB.sctp  "Number of Duplicate TSNs Sent 1"  ETV
vector 906  CAIN.eNodeB.sctp  "End to End Delay of Association 1"  ETV
vector 141  CAIN.eNodeB.x2App[0].client  rcvdPk:vector(packetBytes)  ETV
attr interpolationmode  none
attr source  rcvdPk
attr title  "packets received, vector(packetBytes)"
vector 59  CAIN.pgw.ppp[0].ppp  rxPkOk:vector(packetBytes)  ETV
attr interpolationmode  none
attr source  rxPkOk
attr title  "packets received OK, vector(packetBytes)"
vector 63  CAIN.pgw.ppp[0].ppp  passedUpPk:vector(packetBytes)  ETV
attr interpolationmode  none
attr source  packetSentToUpper
attr title  "packets passed to higher layer, vector(packetBytes)"
vector 44  CAIN.pgw.udp  rcvdPk:vector(packetBytes)  ETV
attr interpolationmode  none
attr source  rcvdPk
attr title  "packets received, vector(packetBytes)"
vector 45  CAIN.pgw.udp  passedUpPk:vector(count)  ETV
attr interpolationmode  none
attr title  "packets passed up, vector(count)"
vector 43  CAIN.pgw.udp  sentPk:vector(packetBytes)  ETV
attr interpolationmode  none
attr source  sentPk
attr title  "packets sent, vector(packetBytes)"
vector 64  CAIN.pgw.ppp[1].queue  rcvdPk:vector(packetBytes)  ETV
attr interpolationmode  none
attr title  "received packets, vector(packetBytes)"
vector 66  CAIN.pgw.ppp[1].queue  queueingTime:vector  ETV
attr interpolationmode  none
attr title  "queueing time, vector"
vector 73  CAIN.pgw.ppp[1].ppp  rcvdPkFromHL:vector(packetBytes)  ETV
attr interpolationmode  none
attr source  packetReceivedFromUpper
attr title  "packets received from higher layer, vector(packetBytes)"
vector 69  CAIN.pgw.ppp[1].ppp  txPk:vector(packetBytes)  ETV
attr interpolationmode  none
attr source  packetSentToLower
attr title  "packets transmitted, vector(packetBytes)"
vector 1300  CAIN.eNodeB1.sctp  "Number of Gap Blocks in Last SACK of Association 5"  ETV
vector 871  CAIN.eNodeB1.sctp  "Number of Revokable Gap Blocks in SACK 4"  ETV
vector 872  CAIN.eNodeB1.sctp  "Number of Non-Revokable Gap Blocks in SACK 4"  ETV
vector 1082  CAIN.eNodeB1.sctp  "TSN Acked CumAck 5:10.0.5.1"  ETV
vector 1048  CAIN.eNodeB1.sctp  "Number of Gap Acked Chunks in Last SACK 5:10.0.2.2"  ETV
vector 1049  CAIN.eNodeB1.sctp  "Number of Non-Revokable Gap Acked Chunks in Last SACK 5:10.0.2.2"  ETV
vector 1050  CAIN.eNodeB1.sctp  "Number of Gap Missed Chunks in Last SACK 5:10.0.2.2"  ETV
vector 1021  CAIN.eNodeB1.sctp  "Number of Gap Acked Chunks in Last SACK 5:10.0.4.1"  ETV
vector 1022  CAIN.eNodeB1.sctp  "Number of Non-Revokable Gap Acked Chunks in Last SACK 5:10.0.4.1"  ETV
vector 1023  CAIN.eNodeB1.sctp  "Number of Gap Missed Chunks in Last SACK 5:10.0.4.1"  ETV
vector 1075  CAIN.eNodeB1.sctp  "Number of Gap Acked Chunks in Last SACK 5:10.0.5.1"  ETV
vector 1076  CAIN.eNodeB1.sctp  "Number of Non-Revokable Gap Acked Chunks in Last SACK 5:10.0.5.1"  ETV
vector 1077  CAIN.eNodeB1.sctp  "Number of Gap Missed Chunks in Last SACK 5:10.0.5.1"  ETV
vector 881  CAIN.eNodeB1.sctp  "Arwnd in Last SACK 4"  ETV
vector 1084  CAIN.eNodeB1.sctp  "TSN PseudoCumAck 5:10.0.5.1"  ETV
vector 1085  CAIN.eNodeB1.sctp  "TSN RTXPseudoCumAck 5:10.0.5.1"  ETV
vector 1078  CAIN.eNodeB1.sctp  "Partial Bytes Acked 5:10.0.5.1"  ETV
vector 181  CAIN.eNodeB1.pppIf.ppp  rxPkOk:vector(packetBytes)  ETV
attr interpolationmode  none
attr source  rxPkOk
attr title  "packets received OK, vector(packetBytes)"
vector 185  CAIN.eNodeB1.pppIf.ppp  passedUpPk:vector(packetBytes)  ETV
attr interpolationmode  none
attr source  packetSentToUpper
attr title  "packets passed to higher layer, vector(packetBytes)"
vector 145  CAIN.eNodeB1.udp  rcvdPk:vector(packetBytes)  ETV
attr interpolationmode  none
attr source  rcvdPk
attr title  "packets received, vector(packetBytes)"
vector 146  CAIN.eNodeB1.udp  passedUpPk:vector(count)  ETV
attr interpolationmode  none
attr title  "packets passed up, vector(count)"
vector 149  CAIN.eNodeB1.nic.pdcpRrc  receivedPacketFromUpperLayer:vector(packetBytes)  ETV
attr interpolationmode  none
attr source  receivedPacketFromUpperLayer
vector 152  CAIN.eNodeB1.nic.pdcpRrc  sentPacketToLowerLayer:vector(packetBytes)  ETV
attr interpolationmode  none
attr source  sentPacketToLowerLayer
vector 153  CAIN.eNodeB1.nic.mac  receivedPacketFromUpperLayer:vector(packetBytes)  ETV
attr interpolationmode  none
attr source  receivedPacketFromUpperLayer
vector 1525  CAIN.ueD2DTx[4].tcp  tcpRcvQueueBytes  ETV
vector 1512  CAIN.ueD2DTx[4].tcp  "advertised window"  ETV
vector 1511  CAIN.ueD2DTx[4].tcp  "receive window"  ETV
vector 1514  CAIN.ueD2DTx[4].tcp  "sent ack"  ETV
vector 333  CAIN.ueD2DTx[4].nic.pdcpRrc  receivedPacketFromUpperLayer:vector(packetBytes)  ETV
attr interpolationmode  none
attr source  receivedPacketFromUpperLayer
vector 336  CAIN.ueD2DTx[4].nic.pdcpRrc  sentPacketToLowerLayer:vector(packetBytes)  ETV
attr interpolationmode  none
attr source  sentPacketToLowerLayer
vector 337  CAIN.ueD2DTx[4].nic.mac  receivedPacketFromUpperLayer:vector(packetBytes)  ETV
attr interpolationmode  none
attr source  receivedPacketFromUpperLayer
vector 346  CAIN.ueD2DTx[4].nic.mac  CainMessageSent:vector  ETV
attr interpolationmode  none
attr title  "# of Sent CAIN message, vector"
vector 100  CAIN.eNodeB.nic.mac  CainMessage:vector  ETV
attr interpolationmode  none
attr title  "eNB received CAIN message, vector"
vector 154  CAIN.eNodeB1.nic.mac  receivedPacketFromLowerLayer:vector(packetBytes)  ETV
attr interpolationmode  none
attr source  receivedPacketFromLowerLayer
vector 600  CAIN.ueD2DTx[12].nic.mac  DropedCainMessage:vector  ETV
attr interpolationmode  none
attr title  "Droped CAIN message due to RB not available, vector"
vector 1549  CAIN.ueD2DTx[6].tcp  tcpRcvQueueBytes  ETV
vector 1536  CAIN.ueD2DTx[6].tcp  "advertised window"  ETV
vector 1535  CAIN.ueD2DTx[6].tcp  "receive window"  ETV
vector 1538  CAIN.ueD2DTx[6].tcp  "sent ack"  ETV
vector 397  CAIN.ueD2DTx[6].nic.pdcpRrc  receivedPacketFromUpperLayer:vector(packetBytes)  ETV
attr interpolationmode  none
attr source  receivedPacketFromUpperLayer
vector 400  CAIN.ueD2DTx[6].nic.pdcpRrc  sentPacketToLowerLayer:vector(packetBytes)  ETV
attr interpolationmode  none
attr source  sentPacketToLowerLayer
vector 401  CAIN.ueD2DTx[6].nic.mac  receivedPacketFromUpperLayer:vector(packetBytes)  ETV
attr interpolationmode  none
attr source  receivedPacketFromUpperLayer
vector 404  CAIN.ueD2DTx[6].nic.mac  sentPacketToLowerLayer:vector(packetBytes)  ETV
attr interpolationmode  none
attr source  sentPacketToLowerLayer
vector 169  CAIN.eNodeB1.nic.mac  racpkt:vector  ETV
attr interpolationmode  none
attr title  "eNB received racpkt message, vector"
vector 170  CAIN.eNodeB1.nic.mac  racDistanceSignal:vector  ETV
attr interpolationmode  none
attr title  "Rac distance to enb, vector"
vector 171  CAIN.eNodeB1.nic.mac  racServedDevsSignal:vector  ETV
attr interpolationmode  none
attr title  "# of devices served on rac arriavall, vector"
vector 156  CAIN.eNodeB1.nic.mac  sentPacketToLowerLayer:vector(packetBytes)  ETV
attr interpolationmode  none
attr source  sentPacketToLowerLayer
vector 402  CAIN.ueD2DTx[6].nic.mac  receivedPacketFromLowerLayer:vector(packetBytes)  ETV
attr interpolationmode  none
attr source  receivedPacketFromLowerLayer
vector 1573  CAIN.ueD2DTx[13].tcp  tcpRcvQueueBytes  ETV
vector 1560  CAIN.ueD2DTx[13].tcp  "advertised window"  ETV
vector 1559  CAIN.ueD2DTx[13].tcp  "receive window"  ETV
vector 1562  CAIN.ueD2DTx[13].tcp  "sent ack"  ETV
vector 621  CAIN.ueD2DTx[13].nic.pdcpRrc  receivedPacketFromUpperLayer:vector(packetBytes)  ETV
attr interpolationmode  none
attr source  receivedPacketFromUpperLayer
vector 624  CAIN.ueD2DTx[13].nic.pdcpRrc  sentPacketToLowerLayer:vector(packetBytes)  ETV
attr interpolationmode  none
attr source  sentPacketToLowerLayer
vector 625  CAIN.ueD2DTx[13].nic.mac  receivedPacketFromUpperLayer:vector(packetBytes)  ETV
attr interpolationmode  none
attr source  receivedPacketFromUpperLayer
vector 634  CAIN.ueD2DTx[13].nic.mac  CainMessageSent:vector  ETV
attr interpolationmode  none
attr title  "# of Sent CAIN message, vector"
vector 1597  CAIN.ueD2DTx[11].tcp  tcpRcvQueueBytes  ETV
vector 1584  CAIN.ueD2DTx[11].tcp  "advertised window"  ETV
vector 1583  CAIN.ueD2DTx[11].tcp  "receive window"  ETV
vector 1586  CAIN.ueD2DTx[11].tcp  "sent ack"  ETV
vector 557  CAIN.ueD2DTx[11].nic.pdcpRrc  receivedPacketFromUpperLayer:vector(packetBytes)  ETV
attr interpolationmode  none
attr source  receivedPacketFromUpperLayer
vector 560  CAIN.ueD2DTx[11].nic.pdcpRrc  sentPacketToLowerLayer:vector(packetBytes)  ETV
attr interpolationmode  none
attr source  sentPacketToLowerLayer
vector 561  CAIN.ueD2DTx[11].nic.mac  receivedPacketFromUpperLayer:vector(packetBytes)  ETV
attr interpolationmode  none
attr source  receivedPacketFromUpperLayer
vector 1621  CAIN.ueD2DTx[1].tcp  tcpRcvQueueBytes  ETV
vector 1608  CAIN.ueD2DTx[1].tcp  "advertised window"  ETV
vector 1607  CAIN.ueD2DTx[1].tcp  "receive window"  ETV
vector 1610  CAIN.ueD2DTx[1].tcp  "sent ack"  ETV
vector 237  CAIN.ueD2DTx[1].nic.pdcpRrc  receivedPacketFromUpperLayer:vector(packetBytes)  ETV
attr interpolationmode  none
attr source  receivedPacketFromUpperLayer
vector 240  CAIN.ueD2DTx[1].nic.pdcpRrc  sentPacketToLowerLayer:vector(packetBytes)  ETV
attr interpolationmode  none
attr source  sentPacketToLowerLayer
vector 241  CAIN.ueD2DTx[1].nic.mac  receivedPacketFromUpperLayer:vector(packetBytes)  ETV
attr interpolationmode  none
attr source  receivedPacketFromUpperLayer
vector 244  CAIN.ueD2DTx[1].nic.mac  sentPacketToLowerLayer:vector(packetBytes)  ETV
attr interpolationmode  none
attr source  sentPacketToLowerLayer
vector 824  CAIN.ueD2DTx[19].nic.mac  DropedCainMessage:vector  ETV
attr interpolationmode  none
attr title  "Droped CAIN message due to RB not available, vector"
vector 1645  CAIN.ueD2DTx[15].tcp  tcpRcvQueueBytes  ETV
vector 1632  CAIN.ueD2DTx[15].tcp  "advertised window"  ETV
vector 1631  CAIN.ueD2DTx[15].tcp  "receive window"  ETV
vector 1634  CAIN.ueD2DTx[15].tcp  "sent ack"  ETV
vector 685  CAIN.ueD2DTx[15].nic.pdcpRrc  receivedPacketFromUpperLayer:vector(packetBytes)  ETV
attr interpolationmode  none
attr source  receivedPacketFromUpperLayer
vector 688  CAIN.ueD2DTx[15].nic.pdcpRrc  sentPacketToLowerLayer:vector(packetBytes)  ETV
attr interpolationmode  none
attr source  sentPacketToLowerLayer
vector 689  CAIN.ueD2DTx[15].nic.mac  receivedPacketFromUpperLayer:vector(packetBytes)  ETV
attr interpolationmode  none
attr source  receivedPacketFromUpperLayer
vector 242  CAIN.ueD2DTx[1].nic.mac  receivedPacketFromLowerLayer:vector(packetBytes)  ETV
attr interpolationmode  none
attr source  receivedPacketFromLowerLayer
vector 691  CAIN.ueD2DTx[15].nic.mac  sentPacketToUpperLayer:vector(packetBytes)  ETV
attr interpolationmode  none
attr source  sentPacketToUpperLayer
vector 1669  CAIN.ueD2DTx[5].tcp  tcpRcvQueueBytes  ETV
vector 1656  CAIN.ueD2DTx[5].tcp  "advertised window"  ETV
vector 1655  CAIN.ueD2DTx[5].tcp  "receive window"  ETV
vector 1658  CAIN.ueD2DTx[5].tcp  "sent ack"  ETV
vector 365  CAIN.ueD2DTx[5].nic.pdcpRrc  receivedPacketFromUpperLayer:vector(packetBytes)  ETV
attr interpolationmode  none
attr source  receivedPacketFromUpperLayer
vector 368  CAIN.ueD2DTx[5].nic.pdcpRrc  sentPacketToLowerLayer:vector(packetBytes)  ETV
attr interpolationmode  none
attr source  sentPacketToLowerLayer
vector 369  CAIN.ueD2DTx[5].nic.mac  receivedPacketFromUpperLayer:vector(packetBytes)  ETV
attr interpolationmode  none
attr source  receivedPacketFromUpperLayer
vector 1693  CAIN.ueD2DTx[12].tcp  tcpRcvQueueBytes  ETV
vector 1680  CAIN.ueD2DTx[12].tcp  "advertised window"  ETV
vector 1679  CAIN.ueD2DTx[12].tcp  "receive window"  ETV
vector 1682  CAIN.ueD2DTx[12].tcp  "sent ack"  ETV
vector 589  CAIN.ueD2DTx[12].nic.pdcpRrc  receivedPacketFromUpperLayer:vector(packetBytes)  ETV
attr interpolationmode  none
attr source  receivedPacketFromUpperLayer
vector 592  CAIN.ueD2DTx[12].nic.pdcpRrc  sentPacketToLowerLayer:vector(packetBytes)  ETV
attr interpolationmode  none
attr source  sentPacketToLowerLayer
vector 593  CAIN.ueD2DTx[12].nic.mac  receivedPacketFromUpperLayer:vector(packetBytes)  ETV
attr interpolationmode  none
attr source  receivedPacketFromUpperLayer
vector 1717  CAIN.ueD2DTx[0].tcp  tcpRcvQueueBytes  ETV
vector 1704  CAIN.ueD2DTx[0].tcp  "advertised window"  ETV
vector 1703  CAIN.ueD2DTx[0].tcp  "receive window"  ETV
vector 1706  CAIN.ueD2DTx[0].tcp  "sent ack"  ETV
vector 205  CAIN.ueD2DTx[0].nic.pdcpRrc  receivedPacketFromUpperLayer:vector(packetBytes)  ETV
attr interpolationmode  none
attr source  receivedPacketFromUpperLayer
vector 208  CAIN.ueD2DTx[0].nic.pdcpRrc  sentPacketToLowerLayer:vector(packetBytes)  ETV
attr interpolationmode  none
attr source  sentPacketToLowerLayer
vector 209  CAIN.ueD2DTx[0].nic.mac  receivedPacketFromUpperLayer:vector(packetBytes)  ETV
attr interpolationmode  none
attr source  receivedPacketFromUpperLayer
vector 218  CAIN.ueD2DTx[0].nic.mac  CainMessageSent:vector  ETV
attr interpolationmode  none
attr title  "# of Sent CAIN message, vector"
vector 1741  CAIN.ueD2DTx[17].tcp  tcpRcvQueueBytes  ETV
vector 1728  CAIN.ueD2DTx[17].tcp  "advertised window"  ETV
vector 1727  CAIN.ueD2DTx[17].tcp  "receive window"  ETV
vector 1730  CAIN.ueD2DTx[17].tcp  "sent ack"  ETV
vector 749  CAIN.ueD2DTx[17].nic.pdcpRrc  receivedPacketFromUpperLayer:vector(packetBytes)  ETV
attr interpolationmode  none
attr source  receivedPacketFromUpperLayer
vector 752  CAIN.ueD2DTx[17].nic.pdcpRrc  sentPacketToLowerLayer:vector(packetBytes)  ETV
attr interpolationmode  none
attr source  sentPacketToLowerLayer
vector 753  CAIN.ueD2DTx[17].nic.mac  receivedPacketFromUpperLayer:vector(packetBytes)  ETV
attr interpolationmode  none
attr source  receivedPacketFromUpperLayer
vector 763  CAIN.ueD2DTx[17].nic.mac  CainHopMessageSent:vector  ETV
attr interpolationmode  none
attr title  "# of Sent CAIN hop message, vector"
vector 756  CAIN.ueD2DTx[17].nic.mac  sentPacketToLowerLayer:vector(packetBytes)  ETV
attr interpolationmode  none
attr source  sentPacketToLowerLayer
vector 595  CAIN.ueD2DTx[12].nic.mac  sentPacketToUpperLayer:vector(packetBytes)  ETV
attr interpolationmode  none
attr source  sentPacketToUpperLayer
vector 274  CAIN.ueD2DTx[2].nic.mac  receivedPacketFromLowerLayer:vector(packetBytes)  ETV
attr interpolationmode  none
attr source  receivedPacketFromLowerLayer
vector 276  CAIN.ueD2DTx[2].nic.mac  sentPacketToLowerLayer:vector(packetBytes)  ETV
attr interpolationmode  none
attr source  sentPacketToLowerLayer
vector 108  CAIN.eNodeB.nic.mac  ServedDevs:vector  ETV
attr interpolationmode  none
attr title  "# of devices served on cain forwarding, vector"
vector 1765  CAIN.ueD2DTx[2].tcp  tcpRcvQueueBytes  ETV
vector 1752  CAIN.ueD2DTx[2].tcp  "advertised window"  ETV
vector 1751  CAIN.ueD2DTx[2].tcp  "receive window"  ETV
vector 1754  CAIN.ueD2DTx[2].tcp  "sent ack"  ETV
vector 269  CAIN.ueD2DTx[2].nic.pdcpRrc  receivedPacketFromUpperLayer:vector(packetBytes)  ETV
attr interpolationmode  none
attr source  receivedPacketFromUpperLayer
vector 272  CAIN.ueD2DTx[2].nic.pdcpRrc  sentPacketToLowerLayer:vector(packetBytes)  ETV
attr interpolationmode  none
attr source  sentPacketToLowerLayer
vector 273  CAIN.ueD2DTx[2].nic.mac  receivedPacketFromUpperLayer:vector(packetBytes)  ETV
attr interpolationmode  none
attr source  receivedPacketFromUpperLayer
vector 282  CAIN.ueD2DTx[2].nic.mac  CainMessageSent:vector  ETV
attr interpolationmode  none
attr title  "# of Sent CAIN message, vector"
vector 1789  CAIN.ueD2DTx[19].tcp  tcpRcvQueueBytes  ETV
vector 1776  CAIN.ueD2DTx[19].tcp  "advertised window"  ETV
vector 1775  CAIN.ueD2DTx[19].tcp  "receive window"  ETV
vector 1778  CAIN.ueD2DTx[19].tcp  "sent ack"  ETV
vector 813  CAIN.ueD2DTx[19].nic.pdcpRrc  receivedPacketFromUpperLayer:vector(packetBytes)  ETV
attr interpolationmode  none
attr source  receivedPacketFromUpperLayer
vector 816  CAIN.ueD2DTx[19].nic.pdcpRrc  sentPacketToLowerLayer:vector(packetBytes)  ETV
attr interpolationmode  none
attr source  sentPacketToLowerLayer
vector 817  CAIN.ueD2DTx[19].nic.mac  receivedPacketFromUpperLayer:vector(packetBytes)  ETV
attr interpolationmode  none
attr source  receivedPacketFromUpperLayer
vector 827  CAIN.ueD2DTx[19].nic.mac  CainHopMessageSent:vector  ETV
attr interpolationmode  none
attr title  "# of Sent CAIN hop message, vector"
vector 306  CAIN.ueD2DTx[3].nic.mac  receivedPacketFromLowerLayer:vector(packetBytes)  ETV
attr interpolationmode  none
attr source  receivedPacketFromLowerLayer
vector 314  CAIN.ueD2DTx[3].nic.mac  CainMessageSent:vector  ETV
attr interpolationmode  none
attr title  "# of Sent CAIN message, vector"
vector 434  CAIN.ueD2DTx[7].nic.mac  receivedPacketFromLowerLayer:vector(packetBytes)  ETV
attr interpolationmode  none
attr source  receivedPacketFromLowerLayer
vector 435  CAIN.ueD2DTx[7].nic.mac  sentPacketToUpperLayer:vector(packetBytes)  ETV
attr interpolationmode  none
attr source  sentPacketToUpperLayer
vector 538  CAIN.ueD2DTx[10].nic.mac  CainMessageSent:vector  ETV
attr interpolationmode  none
attr title  "# of Sent CAIN message, vector"
vector 173  CAIN.eNodeB1.nic.phy  averageCqiUlvect:vector  ETV
attr source  averageCqiUlvect
attr title  "Average Cqi reported in UL, vector"
attr unit  cqi
vector 155  CAIN.eNodeB1.nic.mac  sentPacketToUpperLayer:vector(packetBytes)  ETV
attr interpolationmode  none
attr source  sentPacketToUpperLayer
vector 157  CAIN.eNodeB1.nic.mac  measuredItbs:vector  ETV
attr source  measuredItbs
attr title  "TBS index, vector"
attr unit  ""
vector 150  CAIN.eNodeB1.nic.pdcpRrc  receivedPacketFromLowerLayer:vector(packetBytes)  ETV
attr interpolationmode  none
attr source  receivedPacketFromLowerLayer
vector 151  CAIN.eNodeB1.nic.pdcpRrc  sentPacketToUpperLayer:vector(packetBytes)  ETV
attr interpolationmode  none
attr source  sentPacketToUpperLayer
vector 403  CAIN.ueD2DTx[6].nic.mac  sentPacketToUpperLayer:vector(packetBytes)  ETV
attr interpolationmode  none
attr source  sentPacketToUpperLayer
vector 635  CAIN.ueD2DTx[13].nic.mac  CainHopMessageSent:vector  ETV
attr interpolationmode  none
attr title  "# of Sent CAIN hop message, vector"
vector 571  CAIN.ueD2DTx[11].nic.mac  CainHopMessageSent:vector  ETV
attr interpolationmode  none
attr title  "# of Sent CAIN hop message, vector"
vector 564  CAIN.ueD2DTx[11].nic.mac  sentPacketToLowerLayer:vector(packetBytes)  ETV
attr interpolationmode  none
attr source  sentPacketToLowerLayer
vector 243  CAIN.ueD2DTx[1].nic.mac  sentPacketToUpperLayer:vector(packetBytes)  ETV
attr interpolationmode  none
attr source  sentPacketToUpperLayer
vector 379  CAIN.ueD2DTx[5].nic.mac  CainHopMessageSent:vector  ETV
attr interpolationmode  none
attr title  "# of Sent CAIN hop message, vector"
vector 372  CAIN.ueD2DTx[5].nic.mac  sentPacketToLowerLayer:vector(packetBytes)  ETV
attr interpolationmode  none
attr source  sentPacketToLowerLayer
vector 347  CAIN.ueD2DTx[4].nic.mac  CainHopMessageSent:vector  ETV
attr interpolationmode  none
attr title  "# of Sent CAIN hop message, vector"
vector 219  CAIN.ueD2DTx[0].nic.mac  CainHopMessageSent:vector  ETV
attr interpolationmode  none
attr title  "# of Sent CAIN hop message, vector"
1108	55458 24 150 150 0.0000001228 0.0000001228 1 0 0 0 0
1219	55482 28 235 235 0.0000006304 0.0000006304 1 65535 65535 65535 4294836225
1220	55510 27 235 235 0.0000006304 0.0000006304 1 8940 8940 8940 79923600
1221	55537 29 235 235 0.0000006304 0.0000006304 1 0.3725 0.3725 0.3725 0.13875625
1217	55566 24 235 235 0.0000006304 0.0000006304 1 3 3 3 9
1224	55590 24 235 235 0.0000006304 0.0000006304 1 1 1 1 1
1236	55614 24 163 163 0.0000003096 0.0000003096 1 0 0 0 0
1192	55638 28 235 235 0.0000006304 0.0000006304 1 65535 65535 65535 4294836225
1193	55666 27 235 235 0.0000006304 0.0000006304 1 8940 8940 8940 79923600
1194	55693 29 235 235 0.0000006304 0.0000006304 1 0.3725 0.3725 0.3725 0.13875625
1190	55722 24 235 235 0.0000006304 0.0000006304 1 3 3 3 9
1197	55746 24 235 235 0.0000006304 0.0000006304 1 1 1 1 1
1209	55770 24 163 163 0.0000003096 0.0000003096 1 0 0 0 0
910	55794 27 235 235 0.0000006304 0.0000006304 1 65535 65535 65535 4294836225
911	55821 26 235 235 0.0000006304 0.0000006304 1 8940 8940 8940 79923600
912	55847 28 235 235 0.0000006304 0.0000006304 1 0.3725 0.3725 0.3725 0.13875625
908	55875 46 235 302 0.0000006304 0.0000008564 2 1 3 4 10
909	55921 30 302 302 0.0000008564 0.0000008564 1 2.26e-07 2.26e-07 2.26e-07 5.1076e-14
914	55951 3514 3399 14034 0.0570000972 0.2570024476 126 2000 2125 259875 536158875
917	59465 44 207 221 0.000000552 0.000000596 2 1 2 3 5
916	59509 44 207 221 0.000000552 0.000000596 2 1 2 3 5
918	59553 46 302 308 0.0000008564 0.0000009004 2 1 2 3 5
927	59599 12 131 131 0 0 1 0 0 0 0
886	59611 86 3399 24013 0.0570000972 0.4570024476 3 65533 65535 196603 12884246539
890	59697 3213 3399 24013 0.0570000972 0.4570024476 129 0 224 254 50860
895	62910 74 3399 24013 0.0570000972 0.4570024476 3 0 0 0 0
896	62984 74 3399 24013 0.0570000972 0.4570024476 3 0 0 0 0
897	63058 74 3399 24013 0.0570000972 0.4570024476 3 0 0 0 0
898	63132 74 3399 24013 0.0570000972 0.4570024476 3 0 0 0 0
899	63206 74 3399 24013 0.0570000972 0.4570024476 3 0 0 0 0
900	63280 74 3399 24013 0.0570000972 0.4570024476 3 0 0 0 0
901	63354 74 3399 24013 0.0570000972 0.4570024476 3 0 0 0 0
902	63428 77 3399 24013 0.0570000972 0.4570024476 3 16 16 48 768
904	63505 27 163 163 0.0000003096 0.0000003096 1 65535 65535 65535 4294836225
906	63532 4255 3402 14147 0.0570000972 0.2570024476 126 9.72e-08 1.8732e-06 0.0002136552 3.9409108704e-10
907	67787 12 131 131 0 0 1 0 0 0 0
1138	67799 27 178 178 0.000000458 0.000000458 1 65535 65535 65535 4294836225
1139	67826 26 178 178 0.000000458 0.000000458 1 8940 8940 8940 79923600
1140	67852 28 178 178 0.000000458 0.000000458 1 0.3725 0.3725 0.3725 0.13875625
1136	67880 23 178 178 0.000000458 0.000000458 1 3 3 3 9
1143	67903 23 178 178 0.000000458 0.000000458 1 1 1 1 1
1151	67926 76 657 21658 0.0070001912 0.4070025416 3 0 0 0 0
1152	68002 76 657 21658 0.0070001912 0.4070025416 3 0 0 0 0
1153	68078 76 657 21658 0.0070001912 0.4070025416 3 0 0 0 0
1155	68154 24 150 150 0.0000001228 0.0000001228 1 0 0 0 0
1111	68178 27 178 178 0.000000458 0.000000458 1 65535 65535 65535 4294836225
1112	68205 26 178 178 0.000000458 0.000000458 1 8940 8940 8940 79923600
1113	68231 28 178 178 0.000000458 0.000000458 1 0.3725 0.3725 0.3725 0.13875625
1109	68259 23 178 178 0.000000458 0.000000458 1 3 3 3 9
1116	68282 23 178 178 0.000000458 0.000000458 1 1 1 1 1
1124	68305 76 657 21658 0.0070001912 0.4070025416 3 0 0 0 0
1125	68381 76 657 21658 0.0070001912 0.4070025416 3 0 0 0 0
1126	68457 76 657 21658 0.0070001912 0.4070025416 3 0 0 0 0
1128	68533 24 150 150 0.0000001228 0.0000001228 1 0 0 0 0
1165	68557 57 178 59275 0.000000458 1.2070005744 2 65535 65535 131070 8589672450
1166	68614 55 178 59275 0.000000458 1.2070005744 2 8940 8940 17880 159847200
1167	68669 58 178 59275 0.000000458 1.2070005744 2 0.3725 23.84 24.2125 568.48435625
1163	68727 123 178 21658 0.000000458 0.4070025416 5 1 3 7 13
1164	68850 138 255 21658 0.0000006744 0.4070025416 4 1.912e-07 0.2000019672 0.400002758 0.0800009401641
1168	68988 3619 601 11140 0.007 0.2070005744 126 2000 2125 259875 536158875
1172	72607 48 273 287 0.0000007624 0.0000008064 2 1 2 3 5
1171	72655 48 273 287 0.0000007624 0.0000008064 2 1 2 3 5
1173	72703 48 255 265 0.0000006744 0.0000007184 2 1 2 3 5
1174	72751 6872 601 21658 0.007 0.4070025416 252 0 224 25428 3752504
1175	79623 6872 601 21658 0.007 0.4070025416 252 0 224 25428 3752504
1178	86495 76 657 21658 0.0070001912 0.4070025416 3 0 0 0 0
1179	86571 76 657 21658 0.0070001912 0.4070025416 3 0 0 0 0
1180	86647 76 657 21658 0.0070001912 0.4070025416 3 0 0 0 0
1181	86723 76 657 21658 0.0070001912 0.4070025416 3 0 0 0 0
1182	86799 24 150 150 0.0000001228 0.0000001228 1 0 0 0 0
1185	86823 85 657 21658 0.0070001912 0.4070025416 3 2000 2125 6138 12567794
1187	86908 76 657 21658 0.0070001912 0.4070025416 3 0 0 0 0
1188	86984 76 657 21658 0.0070001912 0.4070025416 3 0 0 0 0
1304	87060 76 657 21658 0.0070001912 0.4070025416 3 0 0 0 0
1305	87136 5718 601 11140 0.007 0.2070005744 252 0 112 12714 938126
848	92854 6620 601 21658 0.007 0.4070025416 252 0 224 25428 3752504
847	99474 6620 601 21658 0.007 0.4070025416 252 0 224 25428 3752504
849	106094 73 657 21658 0.0070001912 0.4070025416 3 0 0 0 0
850	106167 73 657 21658 0.0070001912 0.4070025416 3 0 0 0 0
859	106240 85 657 21658 0.0070001912 0.4070025416 3 65533 65535 196603 12884246539
860	106325 112 150 21658 0.0000001228 0.4070025416 4 65533 65535 262138 17179082764
863	106437 12 123 123 0 0 1 0 0 0 0
1005	106449 24 149 149 0.0000001228 0.0000001228 1 0 0 0 0
1273	106473 28 236 236 0.0000006304 0.0000006304 1 65535 65535 65535 4294836225
1274	106501 27 236 236 0.0000006304 0.0000006304 1 8940 8940 8940 79923600
1275	106528 29 236 236 0.0000006304 0.0000006304 1 0.3725 0.3725 0.3725 0.13875625
1271	106557 24 236 236 0.0000006304 0.0000006304 1 3 3 3 9
1278	106581 24 236 236 0.0000006304 0.0000006304 1 1 1 1 1
1290	106605 24 164 164 0.0000003096 0.0000003096 1 0 0 0 0
1246	106629 28 236 236 0.0000006304 0.0000006304 1 65535 65535 65535 4294836225
1247	106657 27 236 236 0.0000006304 0.0000006304 1 8940 8940 8940 79923600
1248	106684 29 236 236 0.0000006304 0.0000006304 1 0.3725 0.3725 0.3725 0.13875625
1244	106713 24 236 236 0.0000006304 0.0000006304 1 3 3 3 9
1251	106737 24 236 236 0.0000006304 0.0000006304 1 1 1 1 1
1263	106761 24 164 164 0.0000003096 0.0000003096 1 0 0 0 0
959	106785 27 236 236 0.0000006304 0.0000006304 1 65535 65535 65535 4294836225
960	106812 26 236 236 0.0000006304 0.0000006304 1 8940 8940 8940 79923600
961	106838 28 236 236 0.0000006304 0.0000006304 1 0.3725 0.3725 0.3725 0.13875625
957	106866 46 236 301 0.0000006304 0.0000008564 2 1 3 4 10
958	106912 30 301 301 0.0000008564 0.0000008564 1 2.26e-07 2.26e-07 2.26e-07 5.1076e-14
963	106942 3500 645 11147 0.0070000972 0.2070024476 126 2000 2125 259875 536158875
966	110442 44 208 222 0.000000552 0.000000596 2 1 2 3 5
965	110486 44 208 222 0.000000552 0.000000596 2 1 2 3 5
967	110530 46 301 307 0.0000008564 0.0000009004 2 1 2 3 5
976	110576 12 132 132 0 0 1 0 0 0 0
935	110588 85 645 21651 0.0070000972 0.4070024476 3 65533 65535 196603 12884246539
939	110673 3198 645 21651 0.0070000972 0.4070024476 129 0 224 254 50860
944	113871 73 645 21651 0.0070000972 0.4070024476 3 0 0 0 0
945	113944 73 645 21651 0.0070000972 0.4070024476 3 0 0 0 0
946	114017 73 645 21651 0.0070000972 0.4070024476 3 0 0 0 0
947	114090 73 645 21651 0.0070000972 0.4070024476 3 0 0 0 0
948	114163 73 645 21651 0.0070000972 0.4070024476 3 0 0 0 0
949	114236 73 645 21651 0.0070000972 0.4070024476 3 0 0 0 0
950	114309 73 645 21651 0.0070000972 0.4070024476 3 0 0 0 0
951	114382 76 645 21651 0.0070000972 0.4070024476 3 16 16 48 768
953	114458 27 164 164 0.0000003096 0.0000003096 1 65535 65535 65535 4294836225
955	114485 4241 648 11260 0.0070000972 0.2070024476 126 9.72e-08 1.8732e-06 0.0002136552 3.9409108704e-10
956	118726 12 132 132 0 0 1 0 0 0 0
1035	118738 27 177 177 0.000000458 0.000000458 1 65535 65535 65535 4294836225
1036	118765 26 177 177 0.000000458 0.000000458 1 8940 8940 8940 79923600
1037	118791 28 177 177 0.000000458 0.000000458 1 0.3725 0.3725 0.3725 0.13875625
1033	118819 23 177 177 0.000000458 0.000000458 1 3 3 3 9
1040	118842 23 177 177 0.000000458 0.000000458 1 1 1 1 1
1048	118865 77 3420 24020 0.0570001912 0.4570025416 3 0 0 0 0
1049	118942 77 3420 24020 0.0570001912 0.4570025416 3 0 0 0 0
1050	119019 77 3420 24020 0.0570001912 0.4570025416 3 0 0 0 0
1052	119096 24 149 149 0.0000001228 0.0000001228 1 0 0 0 0
1008	119120 27 177 177 0.000000458 0.000000458 1 65535 65535 65535 4294836225
1009	119147 26 177 177 0.000000458 0.000000458 1 8940 8940 8940 79923600
1010	119173 28 177 177 0.000000458 0.000000458 1 0.3725 0.3725 0.3725 0.13875625
1006	119201 23 177 177 0.000000458 0.000000458 1 3 3 3 9
1013	119224 23 177 177 0.000000458 0.000000458 1 1 1 1 1
1021	119247 77 3420 24020 0.0570001912 0.4570025416 3 0 0 0 0
1022	119324 77 3420 24020 0.0570001912 0.4570025416 3 0 0 0 0
1023	119401 77 3420 24020 0.0570001912 0.4570025416 3 0 0 0 0
1025	119478 24 149 149 0.0000001228 0.0000001228 1 0 0 0 0
1062	119502 57 177 61640 0.000000458 1.2570005744 2 65535 65535 131070 8589672450
1063	119559 55 177 61640 0.000000458 1.2570005744 2 8940 8940 17880 159847200
1064	119614 58 177 61640 0.000000458 1.2570005744 2 0.3725 23.84 24.2125 568.48435625
1060	119672 124 177 24020 0.000000458 0.4570025416 5 1 3 7 13
1061	119796 139 256 24020 0.0000006744 0.4570025416 4 1.912e-07 0.2000019672 0.400002758 0.0800009401641
1065	119935 3633 3321 14027 0.057 0.2570005744 126 2000 2125 259875 536158875
1069	123568 48 274 288 0.0000007624 0.0000008064 2 1 2 3 5
1068	123616 48 274 288 0.0000007624 0.0000008064 2 1 2 3 5
1070	123664 48 256 266 0.0000006744 0.0000007184 2 1 2 3 5
1071	123712 6887 3321 24020 0.057 0.4570025416 252 0 224 25428 3752504
1072	130599 6887 3321 24020 0.057 0.4570025416 252 0 224 25428 3752504
1075	137486 77 3420 24020 0.0570001912 0.4570025416 3 0 0 0 0
1076	137563 77 3420 24020 0.0570001912 0.4570025416 3 0 0 0 0
1077	137640 77 3420 24020 0.0570001912 0.4570025416 3 0 0 0 0
1078	137717 77 3420 24020 0.0570001912 0.4570025416 3 0 0 0 0
1079	137794 24 149 149 0.0000001228 0.0000001228 1 0 0 0 0
1082	137818 86 3420 24020 0.0570001912 0.4570025416 3 2000 2125 6138 12567794
1084	137904 77 3420 24020 0.0570001912 0.4570025416 3 0 0 0 0
1085	137981 77 3420 24020 0.0570001912 0.4570025416 3 0 0 0 0
1300	138058 77 3420 24020 0.0570001912 0.4570025416 3 0 0 0 0
1301	138135 5760 3321 14027 0.057 0.2570005744 252 0 112 12714 938126
870	143895 6635 3321 24020 0.057 0.4570025416 252 0 224 25428 3752504
869	150530 6635 3321 24020 0.057 0.4570025416 252 0 224 25428 3752504
871	157165 74 3420 24020 0.0570001912 0.4570025416 3 0 0 0 0
872	157239 74 3420 24020 0.0570001912 0.4570025416 3 0 0 0 0
881	157313 86 3420 24020 0.0570001912 0.4570025416 3 65533 65535 196603 12884246539
882	157399 113 149 24020 0.0000001228 0.4570025416 4 65533 65535 262138 17179082764
885	157512 12 128 128 0 0 1 0 0 0 0
8	157524 8 0 0 0 0 1 0 0 0 0
9	157532 8 0 0 0 0 1 0 0 0 0
24	157540 9 0 0 0 0 1 0 0 0 0
25	157549 9 0 0 0 0 1 0 0 0 0
35	157558 9 0 0 0 0 1 0 0 0 0
36	157567 9 0 0 0 0 1 0 0 0 0
43	157576 228 3412 524824 0.0570001132 9.1010001132 9 52 52 468 24336
44	157804 228 3410 524822 0.0570001132 9.1010001132 9 52 52 468 24336
45	158032 219 3410 524822 0.0570001132 9.1010001132 9 1 9 45 285
56	158251 9 0 0 0 0 1 0 0 0 0
57	158260 9 0 0 0 0 1 0 0 0 0
59	158269 228 3408 524820 0.0570001132 9.1010001132 9 79 79 711 56169
63	158497 228 3408 524820 0.0570001132 9.1010001132 9 72 72 648 46656
64	158725 228 3414 524826 0.0570001132 9.1010001132 9 72 72 648 46656
66	158953 219 3414 524826 0.0570001132 9.1010001132 9 0 0 0 0
67	159172 9 0 0 0 0 1 0 0 0 0
68	159181 447 0 524828 0 9.1010001764 19 0 1 9 9
69	159628 228 3415 524827 0.0570001132 9.1010001132 9 79 79 711 56169
73	159856 228 3415 524827 0.0570001132 9.1010001132 9 72 72 648 46656
78	160084 9 0 0 0 0 1 0 0 0 0
79	160093 9 0 0 0 0 1 0 0 0 0
86	160102 165 3346 524765 0.057 9.101 9 52 52 468 24336
92	160267 165 3342 524761 0.057 9.101 9 45 45 405 18225
93	160432 165 3342 524761 0.057 9.101 9 44 44 396 17424
96	160597 461380 378 580915 0.002 10 26168 0 0 0 0
97	621977 347 2877 524757 0.051 9.101 20 5 47 451 15653
98	622324 192046 1080 580803 0.016 9.998 10793 0 0 0 0
99	814370 341 2877 524702 0.051 9.1 20 0 14 84 1176
100	814711 52103 3666 580636 0.061 9.996 2450 1 2450 3002475 4905043325
101	866814 92951 1080 580803 0.016 9.998 4304 1 4304 9264360 26585625080
106	959765 279053 1080 580915 0.016 10 13468 398 885 9909843 7426623831
108	1238818 45967 5590 580806 0.093 9.998 2441 3 6 13473 76147
109	1284785 83413 2699 580915 0.048 10 4273 9 16 65926 1023248
111	1368198 325413 1080 580915 0.016 10 14808 1 14808 109645836 1082460241604
112	1693611 306903 1080 580915 0.016 10 14808 113 564 5703684 2274298998
113	2000514 277287 1080 580915 0.016 10 14808 0 0 0 0
115	2277801 24505 2689 580904 0.048 10 1344 2 8 2730 5770
117	2302306 174 3348 524767 0.057 9.101 9 72 72 648 46656
119	2302480 165 3348 524767 0.057 9.101 9 0 0 0 0
120	2302645 10 0 0 0 0 1 0 0 0 0
121	2302655 403 0 524819 0 9.1010000632 19 0 1 9 9
122	2303058 174 3349 524768 0.057 9.101 9 79 79 711 56169
126	2303232 174 3349 524768 0.057 9.101 9 72 72 648 46656
128	2303406 421 139 24015 0 0.4570024476 18 36 2272 3544 5324000
130	2303827 438 139 24015 0 0.4570024476 18 0 8.8e-08 3.088e-07 1.946112e-14
131	2304265 280 0 258 0 0.0000007124 13 0 2 10 14
132	2304545 828 0 24017 0 0.4570024916 37 0 1 18 18
133	2305373 423 141 24016 0 0.4570024476 18 43 2279 3670 5374498
134	2305796 442 146 21656 0.0000001228 0.4070025416 18 43 2279 3670 5374498
137	2306238 423 141 24016 0 0.4570024476 18 36 2272 3544 5324000
138	2306661 442 146 21656 0.0000001228 0.4070025416 18 36 2272 3544 5324000
141	2307103 3136 3404 14370 0.0570000972 0.2570024476 126 2 2 252 504
145	2310239 237 3426 524831 0.0570002264 9.1010002264 9 52 52 468 24336
146	2310476 228 3426 524831 0.0570002264 9.1010002264 9 1 9 45 285
149	2310704 75 3429 6063 0.0570002264 0.1010002264 3 44 44 132 5808
150	2310779 160 145857 523219 3.046 9.079 8 45 45 360 16200
151	2310939 160 145857 523219 3.046 9.079 8 44 44 352 15488
152	2311099 75 3429 6063 0.0570002264 0.1010002264 3 45 45 135 6075
153	2311174 75 3432 6066 0.0570002264 0.1010002264 3 45 45 135 6075
154	2311249 431110 3693 580788 0.062 9.998 23226 0 0 0 0
155	2742359 200 145527 523214 3.041 9.079 10 19 47 380 15776
156	2742559 980 3891 523214 0.065 9.079 52 0 0 0 0
157	2743539 236 145527 523214 3.041 9.079 12 0 21 134 2314
169	2743775 265 3891 522725 0.065 9.072 14 1 14 105 1015
170	2744040 288 3891 522725 0.065 9.072 14 137 674 5537 2727451
171	2744328 260 3891 522725 0.065 9.072 14 0 0 0 0
173	2744588 270 145434 523046 3.038 9.076 14 2 11 86 722
178	2744858 10 0 0 0 0 1 0 0 0 0
179	2744868 10 0 0 0 0 1 0 0 0 0
181	2744878 237 3424 524829 0.0570002264 9.1010002264 9 79 79 711 56169
185	2745115 237 3424 524829 0.0570002264 9.1010002264 9 72 72 648 46656
186	2745352 422 140 21653 0 0.4070024476 18 36 2272 3544 5324000
188	2745774 439 140 21653 0 0.4070024476 18 0 8.8e-08 3.088e-07 1.946112e-14
189	2746213 280 0 257 0 0.0000007124 13 0 2 10 14
190	2746493 830 0 21655 0 0.4070024916 37 0 1 18 18
191	2747323 424 142 21654 0 0.4070024476 18 43 2279 3670 5374498
192	2747747 441 145 24018 0.0000001228 0.4570025416 18 43 2279 3670 5374498
195	2748188 424 142 21654 0 0.4070024476 18 36 2272 3544 5324000
196	2748612 441 145 24018 0.0000001228 0.4570025416 18 36 2272 3544 5324000
199	2749053 3122 650 11483 0.0070000972 0.2070024476 126 2 2 252 504
205	2752175 85 5263 523910 0.088660440601 9.088660440601 3 44 44 132 5808
208	2752260 85 5263 523910 0.088660440601 9.088660440601 3 45 45 135 6075
209	2752345 85 5266 523913 0.088660440601 9.088660440601 3 45 45 135 6075
210	2752430 378 1026 523267 0.014 9.079 22 0 0 0 0
212	2752808 26672 1026 580815 0.014 9.999 1406 0 0 0 0
218	2779480 29317 5270 580815 0.089 9.999 1383 1 1383 957036 882706204
219	2808797 19 521112 521112 9.049 9.049 1 1 1 1 1
231	2808816 163 0 6247 0 0.105 10 1 2 19 37
237	2808979 85 4205 522612 0.070868452201 9.070868452201 3 44 44 132 5808
240	2809064 85 4205 522612 0.070868452201 9.070868452201 3 45 45 135 6075
241	2809149 125 4208 522951 0.070868452201 9.075 5 45 47 229 10493
242	2809274 78824 4351 580912 0.073 10 4190 0 0 0 0
243	2888098 38 147642 522947 3.075 9.075 2 0 0 0 0
244	2888136 78752 4212 580912 0.071 10 4186 0 0 0 0
263	2966888 163 0 6248 0 0.105 10 1 2 19 37
269	2967051 85 5662 524385 0.095104090585 9.095104090585 3 44 44 132 5808
272	2967136 85 5662 524385 0.095104090585 9.095104090585 3 45 45 135 6075
273	2967221 85 5665 524388 0.095104090585 9.095104090585 3 45 45 135 6075
274	2967306 91198 5411 580852 0.091 9.999 4827 0 0 0 0
276	3058504 117454 5411 580852 0.091 9.999 6209 0 0 0 0
282	3175958 29295 5690 580603 0.096 9.996 1382 1 1382 955653 880793515
295	3205253 163 0 6249 0 0.105 10 1 2 19 37
301	3205416 85 1576 519656 0.027262016546 9.027262016546 3 44 44 132 5808
304	3205501 85 1576 519656 0.027262016546 9.027262016546 3 45 45 135 6075
305	3205586 85 1579 519659 0.027262016546 9.027262016546 3 45 45 135 6075
306	3205671 26542 144216 580855 3.014 9.999 1397 0 0 0 0
308	3232213 53149 1585 580855 0.028 9.999 2798 0 0 0 0
314	3285362 29539 144852 580726 3.028 9.998 1393 1 1393 970921 901985609
315	3314901 140 1585 523148 0.028 9.078 8 1 8 36 204
327	3315041 163 0 6250 0 0.105 10 1 2 19 37
333	3315204 85 3539 521791 0.058969033093 9.058969033093 3 44 44 132 5808
336	3315289 85 3539 521791 0.058969033093 9.058969033093 3 45 45 135 6075
337	3315374 85 3542 521794 0.058969033093 9.058969033093 3 45 45 135 6075
338	3315459 49797 1979 580629 0.036 9.996 2651 0 0 0 0
340	3365256 87158 1979 580820 0.036 9.999 4640 0 0 0 0
346	3452414 42177 3549 580820 0.059 9.999 1987 1 1987 1975078 2616978350
347	3494591 38 149621 524979 3.104 9.104 2 1 2 3 5
359	3494629 10 0 0 0 0 1 1 1 1 1
365	3494639 85 4769 523387 0.080385986073 9.080385986073 3 44 44 132 5808
368	3494724 85 4769 523387 0.080385986073 9.080385986073 3 45 45 135 6075
369	3494809 85 4772 523390 0.080385986073 9.080385986073 3 45 45 135 6075
372	3494894 26296 148063 580607 3.081 9.996 1384 0 0 0 0
379	3521190 29341 148063 580607 3.081 9.996 1384 1 1384 958420 884621660
391	3550531 163 0 6251 0 0.105 10 1 2 19 37
397	3550694 85 3830 522127 0.063074826114 9.063074826114 3 44 44 132 5808
400	3550779 85 3830 522127 0.063074826114 9.063074826114 3 45 45 135 6075
401	3550864 201 3833 522848 0.063074826114 9.074 9 0 47 229 10493
402	3551065 118167 3944 580909 0.066 10 6247 0 0 0 0
403	3669232 114 147137 522844 3.068 9.074 6 0 0 0 0
404	3669346 118015 3843 580909 0.064 10 6239 0 0 0 0
423	3787361 163 0 6252 0 0.105 10 1 2 19 37
429	3787524 85 1828 519987 0.032193433337 9.032193433337 3 44 44 132 5808
432	3787609 85 1828 519987 0.032193433337 9.032193433337 3 45 45 135 6075
433	3787694 165 1831 520605 0.032193433337 9.042 7 19 45 233 8597
434	3787859 775 145229 523486 3.035 9.082 41 0 0 0 0
435	3788634 76 145321 520601 3.037 9.042 4 0 0 0 0
436	3788710 710 1842 523486 0.033 9.082 38 0 0 0 0
443	3789420 85 1842 3001 0.033 0.053 5 1 5 15 55
455	3789505 163 0 6253 0 0.105 10 1 2 19 37
461	3789668 85 2315 520652 0.042654495104 9.042654495104 3 44 44 132 5808
464	3789753 85 2315 520652 0.042654495104 9.042654495104 3 45 45 135 6075
465	3789838 177 2318 520978 0.042654495104 9.047 8 5 47 280 12224
466	3790015 26526 1053 580893 0.015 10 1443 0 0 0 0
467	3816541 89 2595 520974 0.047 9.047 5 0 0 0 0
468	3816630 26196 1053 580893 0.015 10 1424 0 0 0 0
473	3842826 207 1107 2310 0.017 0.042 12 1 12 78 650
487	3843033 163 0 6254 0 0.105 10 1 2 19 37
493	3843196 85 2323 520659 0.042742808261 9.042742808261 3 44 44 132 5808
496	3843281 85 2323 520659 0.042742808261 9.042742808261 3 45 45 135 6075
497	3843366 253 2326 521399 0.042742808261 9.053 12 0 47 276 12702
498	3843619 492 2532 521774 0.045 9.058 27 0 0 0 0
499	3844111 165 2600 521395 0.047 9.053 9 0 0 0 0
500	3844276 275 2403 521416 0.043 9.053 15 0 0 0 0
519	3844551 10 0 0 0 0 1 1 1 1 1
525	3844561 85 2089 520309 0.037255783586 9.037255783586 3 44 44 132 5808
528	3844646 85 2089 520309 0.037255783586 9.037255783586 3 45 45 135 6075
529	3844731 85 2092 520312 0.037255783586 9.037255783586 3 45 45 135 6075
532	3844816 26535 2107 580734 0.038 9.998 1397 0 0 0 0
538	3871351 29539 145372 580734 3.038 9.998 1393 1 1393 970921 901985609
539	3900890 68 2107 3013 0.038 0.053 4 1 4 10 30
551	3900958 163 0 6255 0 0.105 10 1 2 19 37
557	3901121 85 4080 522496 0.068596436554 9.068596436554 3 44 44 132 5808
560	3901206 85 4080 522496 0.068596436554 9.068596436554 3 45 45 135 6075
561	3901291 85 4083 522499 0.068596436554 9.068596436554 3 45 45 135 6075
564	3901376 26353 147240 580828 3.069 9.999 1387 0 0 0 0
571	3927729 29407 147240 580828 3.069 9.999 1387 1 1387 962578 890384650
583	3957136 163 0 6256 0 0.105 10 1 2 19 37
589	3957299 85 5138 523813 0.086132885579 9.086132885579 3 44 44 132 5808
592	3957384 85 5138 523813 0.086132885579 9.086132885579 3 45 45 135 6075
593	3957469 253 5141 524509 0.086132885579 9.097 12 5 45 288 11268
594	3957722 173355 2077 580896 0.037 10 9288 0 0 0 0
595	4131077 165 5394 524505 0.091 9.097 9 0 0 0 0
596	4131242 172849 2077 580896 0.037 10 9259 0 0 0 0
600	4304091 102 3742 5228 0.062 0.087 6 1 6 21 91
601	4304193 189 2179 5297 0.039 0.089 11 1 11 66 506
615	4304382 10 0 0 0 0 1 1 1 1 1
621	4304392 85 3998 522390 0.067512416122 9.067512416122 3 44 44 132 5808
624	4304477 85 3998 522390 0.067512416122 9.067512416122 3 45 45 135 6075
625	4304562 85 4001 522393 0.067512416122 9.067512416122 3 45 45 135 6075
626	4304647 29973 2521 580902 0.045 10 1633 0 0 0 0
628	4334620 56343 2521 580902 0.045 10 3021 0 0 0 0
634	4390963 9634 4017 580444 0.068 9.993 464 1 464 107880 33406840
635	4400597 19296 147149 580738 3.068 9.998 924 1 924 427350 263390050
647	4419893 163 0 6257 0 0.105 10 1 2 19 37
653	4420056 85 2426 520738 0.043019576671 9.043019576671 3 44 44 132 5808
656	4420141 85 2426 520738 0.043019576671 9.043019576671 3 45 45 135 6075
657	4420226 85 2429 520741 0.043019576671 9.043019576671 3 45 45 135 6075
660	4420311 26499 2446 580832 0.044 9.999 1395 0 0 0 0
667	4446810 29577 2446 580832 0.044 9.999 1395 1 1395 973710 905874870
679	4476387 163 0 6258 0 0.105 10 1 2 19 37
685	4476550 85 4246 522670 0.071731106779 9.071731106779 3 44 44 132 5808
688	4476635 85 4246 522670 0.071731106779 9.071731106779 3 45 45 135 6075
689	4476720 201 4249 523414 0.071731106779 9.081 9 19 45 282 9858
690	4476921 505 3202 523788 0.055 9.086 28 0 0 0 0
691	4477426 110 4534 523410 0.076 9.081 6 0 0 0 0
692	4477536 254 3202 523422 0.055 9.081 14 0 0 0 0
697	4477790 34 3388 3394 0.057 0.057 2 1 2 3 5
711	4477824 10 0 0 0 0 1 1 1 1 1
717	4477834 84 892 518706 0.012314120021 9.012314120021 3 44 44 132 5808
720	4477918 84 892 518706 0.012314120021 9.012314120021 3 45 45 135 6075
721	4478002 84 895 518709 0.012314120021 9.012314120021 3 45 45 135 6075
724	4478086 26714 976 580742 0.013 9.998 1407 0 0 0 0
731	4504800 29828 976 580742 0.013 9.998 1407 1 1407 990528 929445440
743	4534628 163 0 6259 0 0.105 10 1 2 19 37
749	4534791 85 5302 523967 0.089070481334 9.089070481334 3 44 44 132 5808
752	4534876 85 5302 523967 0.089070481334 9.089070481334 3 45 45 135 6075
753	4534961 85 5305 523970 0.089070481334 9.089070481334 3 45 45 135 6075
756	4535046 25518 5345 580884 0.09 10 1384 0 0 0 0
763	4560564 28563 5345 580884 0.09 10 1384 1 1384 958420 884621660
775	4589127 163 0 6260 0 0.105 10 1 2 19 37
781	4589290 85 1896 520096 0.034967919982 9.034967919982 3 44 44 132 5808
784	4589375 85 1896 520096 0.034967919982 9.034967919982 3 45 45 135 6075
785	4589460 85 1899 520099 0.034967919982 9.034967919982 3 45 45 135 6075
788	4589545 36332 1920 580886 0.035 10 1994 0 0 0 0
795	4625877 41207 1920 580886 0.035 10 1994 1 1994 1989015 2644726945
807	4667084 10 0 0 0 0 1 1 1 1 1
813	4667094 85 5950 524698 0.099035166858 9.099035166858 3 44 44 132 5808
816	4667179 85 5950 524698 0.099035166858 9.099035166858 3 45 45 135 6075
817	4667264 85 5953 524701 0.099035166858 9.099035166858 3 45 45 135 6075
818	4667349 154114 2571 580844 0.046 9.999 8157 0 0 0 0
820	4821463 140541 2571 580888 0.046 10 7493 0 0 0 0
824	4962004 51 4241 6121 0.071 0.102 3 1 3 6 14
825	4962055 102 2697 5945 0.048 0.099 6 1 6 21 91
827	4962157 13245 6528 579938 0.11 9.985 660 1 660 218130 96049910
839	4975402 10 0 0 0 0 1 1 1 1 1
1319	4975412 93 889 518703 0.012314120021 9.012314120021 3 7504 7504 22512 168930048
1320	4975505 93 889 518703 0.012314120021 9.012314120021 3 7504 7504 22512 168930048
1322	4975598 84 889 518703 0.012314120021 9.012314120021 3 0 0 0 0
1333	4975682 84 889 518703 0.012314120021 9.012314120021 3 0 0 0 0
1343	4975766 94 1573 519653 0.027262016546 9.027262016546 3 7504 7504 22512 168930048
1344	4975860 94 1573 519653 0.027262016546 9.027262016546 3 7504 7504 22512 168930048
1346	4975954 85 1573 519653 0.027262016546 9.027262016546 3 0 0 0 0
1357	4976039 85 1573 519653 0.027262016546 9.027262016546 3 0 0 0 0
1367	4976124 94 1825 519984 0.032193433337 9.032193433337 3 7504 7504 22512 168930048
1368	4976218 94 1825 519984 0.032193433337 9.032193433337 3 7504 7504 22512 168930048
1370	4976312 85 1825 519984 0.032193433337 9.032193433337 3 0 0 0 0
1381	4976397 85 1825 519984 0.032193433337 9.032193433337 3 0 0 0 0
1391	4976482 94 1893 520093 0.034967919982 9.034967919982 3 7504 7504 22512 168930048
1392	4976576 94 1893 520093 0.034967919982 9.034967919982 3 7504 7504 22512 168930048
1394	4976670 85 1893 520093 0.034967919982 9.034967919982 3 0 0 0 0
1405	4976755 85 1893 520093 0.034967919982 9.034967919982 3 0 0 0 0
1415	4976840 94 2086 520306 0.037255783586 9.037255783586 3 7504 7504 22512 168930048
1416	4976934 94 2086 520306 0.037255783586 9.037255783586 3 7504 7504 22512 168930048
1418	4977028 85 2086 520306 0.037255783586 9.037255783586 3 0 0 0 0
1429	4977113 85 2086 520306 0.037255783586 9.037255783586 3 0 0 0 0
1439	4977198 94 2312 520649 0.042654495104 9.042654495104 3 7504 7504 22512 168930048
1440	4977292 94 2312 520649 0.042654495104 9.042654495104 3 7504 7504 22512 168930048
1442	4977386 85 2312 520649 0.042654495104 9.042654495104 3 0 0 0 0
1453	4977471 85 2312 520649 0.042654495104 9.042654495104 3 0 0 0 0
1463	4977556 94 2320 520656 0.042742808261 9.042742808261 3 7504 7504 22512 168930048
1464	4977650 94 2320 520656 0.042742808261 9.042742808261 3 7504 7504 22512 168930048
1466	4977744 85 2320 520656 0.042742808261 9.042742808261 3 0 0 0 0
1477	4977829 85 2320 520656 0.042742808261 9.042742808261 3 0 0 0 0
1487	4977914 94 2423 520735 0.043019576671 9.043019576671 3 7504 7504 22512 168930048
1488	4978008 94 2423 520735 0.043019576671 9.043019576671 3 7504 7504 22512 168930048
1490	4978102 85 2423 520735 0.043019576671 9.043019576671 3 0 0 0 0
1501	4978187 85 2423 520735 0.043019576671 9.043019576671 3 0 0 0 0
1511	4978272 94 3536 521788 0.058969033093 9.058969033093 3 7504 7504 22512 168930048
1512	4978366 94 3536 521788 0.058969033093 9.058969033093 3 7504 7504 22512 168930048
1514	4978460 85 3536 521788 0.058969033093 9.058969033093 3 0 0 0 0
1525	4978545 85 3536 521788 0.058969033093 9.058969033093 3 0 0 0 0
1535	4978630 94 3827 522124 0.063074826114 9.063074826114 3 7504 7504 22512 168930048
1536	4978724 94 3827 522124 0.063074826114 9.063074826114 3 7504 7504 22512 168930048
1538	4978818 85 3827 522124 0.063074826114 9.063074826114 3 0 0 0 0
1549	4978903 85 3827 522124 0.063074826114 9.063074826114 3 0 0 0 0
1559	4978988 94 3995 522387 0.067512416122 9.067512416122 3 7504 7504 22512 168930048
1560	4979082 94 3995 522387 0.067512416122 9.067512416122 3 7504 7504 22512 168930048
1562	4979176 85 3995 522387 0.067512416122 9.067512416122 3 0 0 0 0
1573	4979261 85 3995 522387 0.067512416122 9.067512416122 3 0 0 0 0
1583	4979346 94 4077 522493 0.068596436554 9.068596436554 3 7504 7504 22512 168930048
1584	4979440 94 4077 522493 0.068596436554 9.068596436554 3 7504 7504 22512 168930048
1586	4979534 85 4077 522493 0.068596436554 9.068596436554 3 0 0 0 0
1597	4979619 85 4077 522493 0.068596436554 9.068596436554 3 0 0 0 0
1607	4979704 94 4202 522609 0.070868452201 9.070868452201 3 7504 7504 22512 168930048
1608	4979798 94 4202 522609 0.070868452201 9.070868452201 3 7504 7504 22512 168930048
1610	4979892 85 4202 522609 0.070868452201 9.070868452201 3 0 0 0 0
1621	4979977 85 4202 522609 0.070868452201 9.070868452201 3 0 0 0 0
1631	4980062 94 4243 522667 0.071731106779 9.071731106779 3 7504 7504 22512 168930048
1632	4980156 94 4243 522667 0.071731106779 9.071731106779 3 7504 7504 22512 168930048
1634	4980250 85 4243 522667 0.071731106779 9.071731106779 3 0 0 0 0
1645	4980335 85 4243 522667 0.071731106779 9.071731106779 3 0 0 0 0
1655	4980420 94 4766 523384 0.080385986073 9.080385986073 3 7504 7504 22512 168930048
1656	4980514 94 4766 523384 0.080385986073 9.080385986073 3 7504 7504 22512 168930048
1658	4980608 85 4766 523384 0.080385986073 9.080385986073 3 0 0 0 0
1669	4980693 85 4766 523384 0.080385986073 9.080385986073 3 0 0 0 0
1679	4980778 94 5135 523810 0.086132885579 9.086132885579 3 7504 7504 22512 168930048
1680	4980872 94 5135 523810 0.086132885579 9.086132885579 3 7504 7504 22512 168930048
1682	4980966 85 5135 523810 0.086132885579 9.086132885579 3 0 0 0 0
1693	4981051 85 5135 523810 0.086132885579 9.086132885579 3 0 0 0 0
1703	4981136 94 5260 523907 0.088660440601 9.088660440601 3 7504 7504 22512 168930048
1704	4981230 94 5260 523907 0.088660440601 9.088660440601 3 7504 7504 22512 168930048
1706	4981324 85 5260 523907 0.088660440601 9.088660440601 3 0 0 0 0
1717	4981409 85 5260 523907 0.088660440601 9.088660440601 3 0 0 0 0
1727	4981494 94 5299 523964 0.089070481334 9.089070481334 3 7504 7504 22512 168930048
1728	4981588 94 5299 523964 0.089070481334 9.089070481334 3 7504 7504 22512 168930048
1730	4981682 85 5299 523964 0.089070481334 9.089070481334 3 0 0 0 0
1741	4981767 85 5299 523964 0.089070481334 9.089070481334 3 0 0 0 0
1751	4981852 94 5659 524382 0.095104090585 9.095104090585 3 7504 7504 22512 168930048
1752	4981946 94 5659 524382 0.095104090585 9.095104090585 3 7504 7504 22512 168930048
1754	4982040 85 5659 524382 0.095104090585 9.095104090585 3 0 0 0 0
1765	4982125 85 5659 524382 0.095104090585 9.095104090585 3 0 0 0 0
1775	4982210 94 5947 524695 0.099035166858 9.099035166858 3 7504 7504 22512 168930048
1776	4982304 94 5947 524695 0.099035166858 9.099035166858 3 7504 7504 22512 168930048
1778	4982398 85 5947 524695 0.099035166858 9.099035166858 3 0 0 0 0
1789	4982483 85 5947 524695 0.099035166858 9.099035166858 3 0 0 0 0
