file 4480267 1589562528                                         
version 2
run CAIN-25-20200515-14:04:52-16421
attr configname CAIN
attr datetime 20200515-14:04:52
attr dist 200
attr experiment CAIN
attr inifile omnetpp.ini
attr iterationvars "$numUe=20, $pwr=-50, $dist=200, $mob=\"./movements/RWPRPGM-0.5.movements\""
attr iterationvars2 "$numUe=20, $pwr=-50, $dist=200, $mob=\"./movements/RWPRPGM-0.5.movements\", $repetition=0"
attr measurement "$numUe=20, $pwr=-50, $dist=200, $mob=\"./movements/RWPRPGM-0.5.movements\""
attr mob "\"./movements/RWPRPGM-0.5.movements\""
attr network lte.simulations.networks.CAIN
attr numUe 20
attr processid 16421
attr pwr -50
attr repetition 0
attr replication #0
attr resultdir results
attr runnumber 25
attr seedset 0
param **.**.amcMode "\"AUTO\""
param **.amcMode "\"D2D\""
param **.cainNetwork true
param **.channelControl.alpha 1.0
param **.channelControl.carrierFrequency 2100e+6Hz
param **.channelControl.pMax 10W
param **.d2dCqi 7
param **.deployer.numRbDl 50
param **.deployer.numRbUl 50
param **.distThresh ${dist=200}
param **.fbDelay 1
param **.feedbackComputation "xmldoc(\"config_channel.xml\")"
param **.mobility.constraintAreaMaxX 1000m
param **.mobility.constraintAreaMaxY 1000m
param **.mobility.constraintAreaMaxZ 0m
param **.mobility.constraintAreaMinX 0m
param **.mobility.constraintAreaMinY 0m
param **.mobility.constraintAreaMinZ 0m
param **.nic.phy.channelModel "xmldoc(\"config_channel.xml\")"
param **.numBands 50
param **.pwrThresh "${pwr= -50}"
param **.qtdThresh 3
param **.rbAllocationType "\"localized\""
param **.routingRecorder.enabled false
param **.tcpApp[*].tClose -1s
param **.ueD2DTx[*].mobility.changeAngleBy "normal(0deg, 30deg)"
param **.ueD2DTx[*].mobility.changeInterval "normal(5s, 0.1s)"
param **.ueD2DTx[*].mobility.nodeId -1
param **.ueD2DTx[*].mobility.speed "normal(2mps, 0.01mps)"
param **.ueD2DTx[*].mobility.traceFile "${mob=\"./movements/RWP-0.0.movements\",\"./movements/RWP-0.5.movements\",\"./movements/RPGM-0.0.movements\",\"./movements/RPGM-0.5.movements\",\"./movements/RWPRPGM-0.0.movements\",\"./movements/RWPRPGM-0.5.movements\"}"
param **.ueD2DTx[*].mobilityType "\"BonnMotionMobility\""
param **.usePreconfiguredTxParams false
param *.eNodeB*.numX2Apps 1
param *.eNodeB*.x2App[*].server.localPort "5000 + ancestorIndex(1)"
param *.eNodeB.d2dCapable false
param *.eNodeB.mobility.initFromDisplayString false
param *.eNodeB.mobility.initialX 300m
param *.eNodeB.mobility.initialY 300m
param *.eNodeB.nic.phy.enableD2DCqiReporting true
param *.eNodeB.txPower 19952.62315mw
param *.eNodeB.x2App[0].client.connectAddress "\"eNodeB1%x2ppp0\""
param *.eNodeB1.d2dCapable true
param *.eNodeB1.mobility.initFromDisplayString false
param *.eNodeB1.mobility.initialX 700m
param *.eNodeB1.mobility.initialY 300m
param *.eNodeB1.nic.phy.enableD2DCqiReporting true
param *.eNodeB1.txPower 19952.62315mw
param *.eNodeB1.x2App[0].client.connectAddress "\"eNodeB%x2ppp0\""
param *.extCell[*].bandAllocationType "\"FULL_ALLOC\""
param *.extCell[*].bandUtilization 0.5
param *.extCell[*].txDirection "\"ANISOTROPIC\""
param *.extCell[*].txPower 20
param *.extCell[0].position_x 100m
param *.extCell[0].position_y 600m
param *.extCell[0].txAngle 315
param *.extCell[1].position_x 600m
param *.extCell[1].position_y 600m
param *.extCell[1].txAngle 225
param *.numExtCells 2
param *.numUeCell 0
param *.numUeD2DRx 1
param *.numUeD2DTx 1
param *.ue*.macCellId 1
param *.ue*.masterId 1
param *.ue*.mobility.initFromDisplayString false
param *.ue*[0].macCellId 1
param *.ue*[0].masterId 1
param *.ue*[0].mobility.initFromDisplayString false
param *.ueD2D*.numTcpApps 1
param *.ueD2D*[*].d2dCapable true
param *.ueD2D*[0].d2dCapable false
param *.ueD2D*[0].numTcpApps 1
param *.ueD2DRx[0].mobility.initialX 310m
param *.ueD2DRx[0].mobility.initialY 350m
param *.ueD2DRx[0].tcpApp[*].localPort 1000
param *.ueD2DRx[0].tcpApp[*].typename "\"TCPSinkApp\""
param *.ueD2DTx*.nic.d2dPeerAddresses "\"ueD2DTx[1]\""
param *.ueD2DTx*.tcpApp[*].connectAddress "\"ueD2DTx[0]\""
param *.ueD2DTx*.tcpApp[*].localAddress "\"ueD2DTx\""
param *.ueD2DTx*.tcpApp[*].localPort 1000
param *.ueD2DTx*.tcpApp[*].sendBytes 1GiB
param *.ueD2DTx*.tcpApp[*].typename "\"TCPSessionApp\""
param *.ueD2DTx*.tcpApp[0].active true
param *.ueD2DTx*.tcpApp[0].connectPort 1000
param *.ueD2DTx*.tcpApp[0].tOpen uniform(0.010s,0.1s)
param *.ueD2DTx*.tcpApp[0].tSend uniform(0.15s,0.5s)
param *.ueD2DTx[0].mobility.initialX 290m
param *.ueD2DTx[0].mobility.initialY 350m
param *.ueD2DTx[0].tcpApp[*].localPort 1000
param *.ueD2DTx[0].tcpApp[*].sendBytes 1GiB
param *.ueD2DTx[0].tcpApp[*].typename "\"TCPSessionApp\""
param *.ueD2DTx[0].tcpApp[0].active true
param *.ueD2DTx[0].tcpApp[0].connectAddress "\"ueD2DRx[0]\""
param *.ueD2DTx[0].tcpApp[0].connectPort 1000
param *.ueD2DTx[0].tcpApp[0].localAddress "\"ueD2DTx[0]\""
param *.ueD2DTx[0].tcpApp[0].tOpen uniform(0.010s,0.1s)
param *.ueD2DTx[0].tcpApp[0].tSend uniform(0.15s,0.5s)

vector 8  CAIN.server.ppp[0].queue  queueLength:vector  ETV
attr interpolationmode  sample-hold
attr title  "queue length, vector"
vector 9  CAIN.server.ppp[0].ppp  txState:vector  ETV
attr interpolationmode  sample-hold
attr title  "tx state, vector"
vector 24  CAIN.router.ppp[0].queue  queueLength:vector  ETV
attr interpolationmode  sample-hold
attr title  "queue length, vector"
vector 25  CAIN.router.ppp[0].ppp  txState:vector  ETV
attr interpolationmode  sample-hold
attr title  "tx state, vector"
vector 35  CAIN.router.ppp[1].queue  queueLength:vector  ETV
attr interpolationmode  sample-hold
attr title  "queue length, vector"
vector 36  CAIN.router.ppp[1].ppp  txState:vector  ETV
attr interpolationmode  sample-hold
attr title  "tx state, vector"
vector 56  CAIN.pgw.ppp[0].queue  queueLength:vector  ETV
attr interpolationmode  sample-hold
attr title  "queue length, vector"
vector 57  CAIN.pgw.ppp[0].ppp  txState:vector  ETV
attr interpolationmode  sample-hold
attr title  "tx state, vector"
vector 67  CAIN.pgw.ppp[1].queue  queueLength:vector  ETV
attr interpolationmode  sample-hold
attr title  "queue length, vector"
vector 68  CAIN.pgw.ppp[1].ppp  txState:vector  ETV
attr interpolationmode  sample-hold
attr title  "tx state, vector"
vector 78  CAIN.pgw.pppInterface.queue  queueLength:vector  ETV
attr interpolationmode  sample-hold
attr title  "queue length, vector"
vector 79  CAIN.pgw.pppInterface.ppp  txState:vector  ETV
attr interpolationmode  sample-hold
attr title  "tx state, vector"
vector 120  CAIN.eNodeB.pppIf.queue  queueLength:vector  ETV
attr interpolationmode  sample-hold
attr title  "queue length, vector"
vector 121  CAIN.eNodeB.pppIf.ppp  txState:vector  ETV
attr interpolationmode  sample-hold
attr title  "tx state, vector"
vector 131  CAIN.eNodeB.x2ppp[0].queue  queueLength:vector  ETV
attr interpolationmode  sample-hold
attr title  "queue length, vector"
vector 132  CAIN.eNodeB.x2ppp[0].ppp  txState:vector  ETV
attr interpolationmode  sample-hold
attr title  "tx state, vector"
vector 178  CAIN.eNodeB1.pppIf.queue  queueLength:vector  ETV
attr interpolationmode  sample-hold
attr title  "queue length, vector"
vector 179  CAIN.eNodeB1.pppIf.ppp  txState:vector  ETV
attr interpolationmode  sample-hold
attr title  "tx state, vector"
vector 189  CAIN.eNodeB1.x2ppp[0].queue  queueLength:vector  ETV
attr interpolationmode  sample-hold
attr title  "queue length, vector"
vector 190  CAIN.eNodeB1.x2ppp[0].ppp  txState:vector  ETV
attr interpolationmode  sample-hold
attr title  "tx state, vector"
vector 231  CAIN.ueD2DTx[0].nic.phy  servingCell:vector  ETV
attr source  servingCell
attr title  "ID of the serving eNodeB for the UE, vector"
attr unit  ""
vector 263  CAIN.ueD2DTx[1].nic.phy  servingCell:vector  ETV
attr source  servingCell
attr title  "ID of the serving eNodeB for the UE, vector"
attr unit  ""
vector 295  CAIN.ueD2DTx[2].nic.phy  servingCell:vector  ETV
attr source  servingCell
attr title  "ID of the serving eNodeB for the UE, vector"
attr unit  ""
vector 327  CAIN.ueD2DTx[3].nic.phy  servingCell:vector  ETV
attr source  servingCell
attr title  "ID of the serving eNodeB for the UE, vector"
attr unit  ""
vector 359  CAIN.ueD2DTx[4].nic.phy  servingCell:vector  ETV
attr source  servingCell
attr title  "ID of the serving eNodeB for the UE, vector"
attr unit  ""
vector 391  CAIN.ueD2DTx[5].nic.phy  servingCell:vector  ETV
attr source  servingCell
attr title  "ID of the serving eNodeB for the UE, vector"
attr unit  ""
vector 423  CAIN.ueD2DTx[6].nic.phy  servingCell:vector  ETV
attr source  servingCell
attr title  "ID of the serving eNodeB for the UE, vector"
attr unit  ""
vector 455  CAIN.ueD2DTx[7].nic.phy  servingCell:vector  ETV
attr source  servingCell
attr title  "ID of the serving eNodeB for the UE, vector"
attr unit  ""
vector 487  CAIN.ueD2DTx[8].nic.phy  servingCell:vector  ETV
attr source  servingCell
attr title  "ID of the serving eNodeB for the UE, vector"
attr unit  ""
vector 519  CAIN.ueD2DTx[9].nic.phy  servingCell:vector  ETV
attr source  servingCell
attr title  "ID of the serving eNodeB for the UE, vector"
attr unit  ""
vector 551  CAIN.ueD2DTx[10].nic.phy  servingCell:vector  ETV
attr source  servingCell
attr title  "ID of the serving eNodeB for the UE, vector"
attr unit  ""
vector 583  CAIN.ueD2DTx[11].nic.phy  servingCell:vector  ETV
attr source  servingCell
attr title  "ID of the serving eNodeB for the UE, vector"
attr unit  ""
vector 615  CAIN.ueD2DTx[12].nic.phy  servingCell:vector  ETV
attr source  servingCell
attr title  "ID of the serving eNodeB for the UE, vector"
attr unit  ""
vector 647  CAIN.ueD2DTx[13].nic.phy  servingCell:vector  ETV
attr source  servingCell
attr title  "ID of the serving eNodeB for the UE, vector"
attr unit  ""
vector 679  CAIN.ueD2DTx[14].nic.phy  servingCell:vector  ETV
attr source  servingCell
attr title  "ID of the serving eNodeB for the UE, vector"
attr unit  ""
vector 711  CAIN.ueD2DTx[15].nic.phy  servingCell:vector  ETV
attr source  servingCell
attr title  "ID of the serving eNodeB for the UE, vector"
attr unit  ""
vector 743  CAIN.ueD2DTx[16].nic.phy  servingCell:vector  ETV
attr source  servingCell
attr title  "ID of the serving eNodeB for the UE, vector"
attr unit  ""
vector 775  CAIN.ueD2DTx[17].nic.phy  servingCell:vector  ETV
attr source  servingCell
attr title  "ID of the serving eNodeB for the UE, vector"
attr unit  ""
vector 807  CAIN.ueD2DTx[18].nic.phy  servingCell:vector  ETV
attr source  servingCell
attr title  "ID of the serving eNodeB for the UE, vector"
attr unit  ""
vector 839  CAIN.ueD2DTx[19].nic.phy  servingCell:vector  ETV
attr source  servingCell
attr title  "ID of the serving eNodeB for the UE, vector"
attr unit  ""
vector 863  CAIN.eNodeB.sctp  "Throughput of Association 3"  ETV
vector 885  CAIN.eNodeB1.sctp  "Throughput of Association 4"  ETV
vector 907  CAIN.eNodeB.sctp  "Throughput of Association 1"  ETV
vector 927  CAIN.eNodeB.sctp  "Fast Recovery State 1:10.0.5.2"  ETV
vector 956  CAIN.eNodeB1.sctp  "Throughput of Association 2"  ETV
vector 976  CAIN.eNodeB1.sctp  "Fast Recovery State 2:10.0.5.1"  ETV
vector 128  CAIN.eNodeB.x2ppp[0].queue  rcvdPk:vector(packetBytes)  ETV
attr interpolationmode  none
attr title  "received packets, vector(packetBytes)"
vector 130  CAIN.eNodeB.x2ppp[0].queue  queueingTime:vector  ETV
attr interpolationmode  none
attr title  "queueing time, vector"
vector 186  CAIN.eNodeB1.x2ppp[0].queue  rcvdPk:vector(packetBytes)  ETV
attr interpolationmode  none
attr title  "received packets, vector(packetBytes)"
vector 188  CAIN.eNodeB1.x2ppp[0].queue  queueingTime:vector  ETV
attr interpolationmode  none
attr title  "queueing time, vector"
vector 137  CAIN.eNodeB.x2ppp[0].ppp  rcvdPkFromHL:vector(packetBytes)  ETV
attr interpolationmode  none
attr source  packetReceivedFromUpper
attr title  "packets received from higher layer, vector(packetBytes)"
vector 133  CAIN.eNodeB.x2ppp[0].ppp  txPk:vector(packetBytes)  ETV
attr interpolationmode  none
attr source  packetSentToLower
attr title  "packets transmitted, vector(packetBytes)"
vector 195  CAIN.eNodeB1.x2ppp[0].ppp  rcvdPkFromHL:vector(packetBytes)  ETV
attr interpolationmode  none
attr source  packetReceivedFromUpper
attr title  "packets received from higher layer, vector(packetBytes)"
vector 191  CAIN.eNodeB1.x2ppp[0].ppp  txPk:vector(packetBytes)  ETV
attr interpolationmode  none
attr source  packetSentToLower
attr title  "packets transmitted, vector(packetBytes)"
vector 192  CAIN.eNodeB1.x2ppp[0].ppp  rxPkOk:vector(packetBytes)  ETV
attr interpolationmode  none
attr source  rxPkOk
attr title  "packets received OK, vector(packetBytes)"
vector 196  CAIN.eNodeB1.x2ppp[0].ppp  passedUpPk:vector(packetBytes)  ETV
attr interpolationmode  none
attr source  packetSentToUpper
attr title  "packets passed to higher layer, vector(packetBytes)"
vector 134  CAIN.eNodeB.x2ppp[0].ppp  rxPkOk:vector(packetBytes)  ETV
attr interpolationmode  none
attr source  rxPkOk
attr title  "packets received OK, vector(packetBytes)"
vector 138  CAIN.eNodeB.x2ppp[0].ppp  passedUpPk:vector(packetBytes)  ETV
attr interpolationmode  none
attr source  packetSentToUpper
attr title  "packets passed to higher layer, vector(packetBytes)"
vector 1005  CAIN.eNodeB1.sctp  "Throughput of Association 4"  ETV
vector 882  CAIN.eNodeB1.sctp  "Peer Rwnd 4"  ETV
vector 1025  CAIN.eNodeB1.sctp  "Fast Recovery State 5:10.0.4.1"  ETV
vector 1052  CAIN.eNodeB1.sctp  "Fast Recovery State 5:10.0.2.2"  ETV
vector 1079  CAIN.eNodeB1.sctp  "Fast Recovery State 5:10.0.5.1"  ETV
vector 1108  CAIN.eNodeB.sctp  "Throughput of Association 3"  ETV
vector 860  CAIN.eNodeB.sctp  "Peer Rwnd 3"  ETV
vector 1128  CAIN.eNodeB.sctp  "Fast Recovery State 6:10.0.4.2"  ETV
vector 1155  CAIN.eNodeB.sctp  "Fast Recovery State 6:10.0.3.2"  ETV
vector 1182  CAIN.eNodeB.sctp  "Fast Recovery State 6:10.0.5.2"  ETV
vector 904  CAIN.eNodeB.sctp  "Peer Rwnd 1"  ETV
vector 1209  CAIN.eNodeB.sctp  "Fast Recovery State 1:10.0.4.2"  ETV
vector 1236  CAIN.eNodeB.sctp  "Fast Recovery State 1:10.0.3.2"  ETV
vector 953  CAIN.eNodeB1.sctp  "Peer Rwnd 2"  ETV
vector 1263  CAIN.eNodeB1.sctp  "Fast Recovery State 2:10.0.4.1"  ETV
vector 1290  CAIN.eNodeB1.sctp  "Fast Recovery State 2:10.0.2.2"  ETV
vector 1035  CAIN.eNodeB1.sctp  "Slow Start Threshold 5:10.0.2.2"  ETV
vector 1036  CAIN.eNodeB1.sctp  "Congestion Window 5:10.0.2.2"  ETV
vector 1037  CAIN.eNodeB1.sctp  "Bandwidth 5:10.0.2.2"  ETV
vector 1040  CAIN.eNodeB1.sctp  "HB Sent 5:10.0.2.2"  ETV
vector 1033  CAIN.eNodeB1.sctp  "RTO 5:10.0.2.2"  ETV
vector 1008  CAIN.eNodeB1.sctp  "Slow Start Threshold 5:10.0.4.1"  ETV
vector 1009  CAIN.eNodeB1.sctp  "Congestion Window 5:10.0.4.1"  ETV
vector 1010  CAIN.eNodeB1.sctp  "Bandwidth 5:10.0.4.1"  ETV
vector 1013  CAIN.eNodeB1.sctp  "HB Sent 5:10.0.4.1"  ETV
vector 1006  CAIN.eNodeB1.sctp  "RTO 5:10.0.4.1"  ETV
vector 1062  CAIN.eNodeB1.sctp  "Slow Start Threshold 5:10.0.5.1"  ETV
vector 1063  CAIN.eNodeB1.sctp  "Congestion Window 5:10.0.5.1"  ETV
vector 1064  CAIN.eNodeB1.sctp  "Bandwidth 5:10.0.5.1"  ETV
vector 1060  CAIN.eNodeB1.sctp  "RTO 5:10.0.5.1"  ETV
vector 1138  CAIN.eNodeB.sctp  "Slow Start Threshold 6:10.0.3.2"  ETV
vector 1139  CAIN.eNodeB.sctp  "Congestion Window 6:10.0.3.2"  ETV
vector 1140  CAIN.eNodeB.sctp  "Bandwidth 6:10.0.3.2"  ETV
vector 1143  CAIN.eNodeB.sctp  "HB Sent 6:10.0.3.2"  ETV
vector 1136  CAIN.eNodeB.sctp  "RTO 6:10.0.3.2"  ETV
vector 1111  CAIN.eNodeB.sctp  "Slow Start Threshold 6:10.0.4.2"  ETV
vector 1112  CAIN.eNodeB.sctp  "Congestion Window 6:10.0.4.2"  ETV
vector 1113  CAIN.eNodeB.sctp  "Bandwidth 6:10.0.4.2"  ETV
vector 1116  CAIN.eNodeB.sctp  "HB Sent 6:10.0.4.2"  ETV
vector 1109  CAIN.eNodeB.sctp  "RTO 6:10.0.4.2"  ETV
vector 1165  CAIN.eNodeB.sctp  "Slow Start Threshold 6:10.0.5.2"  ETV
vector 1166  CAIN.eNodeB.sctp  "Congestion Window 6:10.0.5.2"  ETV
vector 1167  CAIN.eNodeB.sctp  "Bandwidth 6:10.0.5.2"  ETV
vector 1163  CAIN.eNodeB.sctp  "RTO 6:10.0.5.2"  ETV
vector 916  CAIN.eNodeB.sctp  "HB ACK Sent 1:10.0.5.2"  ETV
vector 917  CAIN.eNodeB.sctp  "HB Received 1:10.0.5.2"  ETV
vector 965  CAIN.eNodeB1.sctp  "HB ACK Sent 2:10.0.5.1"  ETV
vector 966  CAIN.eNodeB1.sctp  "HB Received 2:10.0.5.1"  ETV
vector 1219  CAIN.eNodeB.sctp  "Slow Start Threshold 1:10.0.3.2"  ETV
vector 1220  CAIN.eNodeB.sctp  "Congestion Window 1:10.0.3.2"  ETV
vector 1221  CAIN.eNodeB.sctp  "Bandwidth 1:10.0.3.2"  ETV
vector 1224  CAIN.eNodeB.sctp  "HB Sent 1:10.0.3.2"  ETV
vector 1217  CAIN.eNodeB.sctp  "RTO 1:10.0.3.2"  ETV
vector 1192  CAIN.eNodeB.sctp  "Slow Start Threshold 1:10.0.4.2"  ETV
vector 1193  CAIN.eNodeB.sctp  "Congestion Window 1:10.0.4.2"  ETV
vector 1194  CAIN.eNodeB.sctp  "Bandwidth 1:10.0.4.2"  ETV
vector 1197  CAIN.eNodeB.sctp  "HB Sent 1:10.0.4.2"  ETV
vector 1190  CAIN.eNodeB.sctp  "RTO 1:10.0.4.2"  ETV
vector 910  CAIN.eNodeB.sctp  "Slow Start Threshold 1:10.0.5.2"  ETV
vector 911  CAIN.eNodeB.sctp  "Congestion Window 1:10.0.5.2"  ETV
vector 912  CAIN.eNodeB.sctp  "Bandwidth 1:10.0.5.2"  ETV
vector 908  CAIN.eNodeB.sctp  "RTO 1:10.0.5.2"  ETV
vector 1273  CAIN.eNodeB1.sctp  "Slow Start Threshold 2:10.0.2.2"  ETV
vector 1274  CAIN.eNodeB1.sctp  "Congestion Window 2:10.0.2.2"  ETV
vector 1275  CAIN.eNodeB1.sctp  "Bandwidth 2:10.0.2.2"  ETV
vector 1278  CAIN.eNodeB1.sctp  "HB Sent 2:10.0.2.2"  ETV
vector 1271  CAIN.eNodeB1.sctp  "RTO 2:10.0.2.2"  ETV
vector 1246  CAIN.eNodeB1.sctp  "Slow Start Threshold 2:10.0.4.1"  ETV
vector 1247  CAIN.eNodeB1.sctp  "Congestion Window 2:10.0.4.1"  ETV
vector 1248  CAIN.eNodeB1.sctp  "Bandwidth 2:10.0.4.1"  ETV
vector 1251  CAIN.eNodeB1.sctp  "HB Sent 2:10.0.4.1"  ETV
vector 1244  CAIN.eNodeB1.sctp  "RTO 2:10.0.4.1"  ETV
vector 959  CAIN.eNodeB1.sctp  "Slow Start Threshold 2:10.0.5.1"  ETV
vector 960  CAIN.eNodeB1.sctp  "Congestion Window 2:10.0.5.1"  ETV
vector 961  CAIN.eNodeB1.sctp  "Bandwidth 2:10.0.5.1"  ETV
vector 957  CAIN.eNodeB1.sctp  "RTO 2:10.0.5.1"  ETV
vector 1173  CAIN.eNodeB.sctp  "HB ACK Received 6:10.0.5.2"  ETV
vector 1164  CAIN.eNodeB.sctp  "RTT 6:10.0.5.2"  ETV
vector 1070  CAIN.eNodeB1.sctp  "HB ACK Received 5:10.0.5.1"  ETV
vector 1061  CAIN.eNodeB1.sctp  "RTT 5:10.0.5.1"  ETV
vector 1171  CAIN.eNodeB.sctp  "HB ACK Sent 6:10.0.5.2"  ETV
vector 1172  CAIN.eNodeB.sctp  "HB Received 6:10.0.5.2"  ETV
vector 1068  CAIN.eNodeB1.sctp  "HB ACK Sent 5:10.0.5.1"  ETV
vector 1069  CAIN.eNodeB1.sctp  "HB Received 5:10.0.5.1"  ETV
vector 967  CAIN.eNodeB1.sctp  "HB ACK Received 2:10.0.5.1"  ETV
vector 958  CAIN.eNodeB1.sctp  "RTT 2:10.0.5.1"  ETV
vector 918  CAIN.eNodeB.sctp  "HB ACK Received 1:10.0.5.2"  ETV
vector 909  CAIN.eNodeB.sctp  "RTT 1:10.0.5.2"  ETV
vector 96  CAIN.eNodeB.nic.mac  receivedPacketFromLowerLayer:vector(packetBytes)  ETV
attr interpolationmode  none
attr source  receivedPacketFromLowerLayer
vector 1305  CAIN.eNodeB.sctp  "SendQueue of Association 6"  ETV
vector 1168  CAIN.eNodeB.sctp  "TSN Sent 6:10.0.5.2"  ETV
vector 1175  CAIN.eNodeB.sctp  "Outstanding Bytes 6:10.0.5.2"  ETV
vector 848  CAIN.eNodeB.sctp  "Outstanding Bytes 3:Total"  ETV
vector 1174  CAIN.eNodeB.sctp  "Queued Sent Bytes 6:10.0.5.2"  ETV
vector 847  CAIN.eNodeB.sctp  "Queued Sent Bytes 3:Total"  ETV
vector 963  CAIN.eNodeB1.sctp  "TSN Received 2:10.0.5.1"  ETV
vector 939  CAIN.eNodeB1.sctp  "Queued Received Bytes 2:Total"  ETV
vector 935  CAIN.eNodeB1.sctp  "Advertised Receiver Window 2"  ETV
vector 944  CAIN.eNodeB1.sctp  "Number of Total Gap Blocks Stored 2"  ETV
vector 945  CAIN.eNodeB1.sctp  "Number of Revokable Gap Blocks Stored 2"  ETV
vector 946  CAIN.eNodeB1.sctp  "Number of Non-Revokable Gap Blocks Stored 2"  ETV
vector 947  CAIN.eNodeB1.sctp  "Number of Duplicate TSNs Stored 2"  ETV
vector 951  CAIN.eNodeB1.sctp  "Length of SACK Sent 2"  ETV
vector 948  CAIN.eNodeB1.sctp  "Number of Revokable Gap Blocks Sent 2"  ETV
vector 949  CAIN.eNodeB1.sctp  "Number of Non-Revokable Gap Blocks Sent 2"  ETV
vector 950  CAIN.eNodeB1.sctp  "Number of Duplicate TSNs Sent 2"  ETV
vector 955  CAIN.eNodeB1.sctp  "End to End Delay of Association 2"  ETV
vector 199  CAIN.eNodeB1.x2App[0].client  rcvdPk:vector(packetBytes)  ETV
attr interpolationmode  none
attr source  rcvdPk
attr title  "packets received, vector(packetBytes)"
vector 1304  CAIN.eNodeB.sctp  "Number of Gap Blocks in Last SACK of Association 6"  ETV
vector 849  CAIN.eNodeB.sctp  "Number of Revokable Gap Blocks in SACK 3"  ETV
vector 850  CAIN.eNodeB.sctp  "Number of Non-Revokable Gap Blocks in SACK 3"  ETV
vector 1185  CAIN.eNodeB.sctp  "TSN Acked CumAck 6:10.0.5.2"  ETV
vector 1151  CAIN.eNodeB.sctp  "Number of Gap Acked Chunks in Last SACK 6:10.0.3.2"  ETV
vector 1152  CAIN.eNodeB.sctp  "Number of Non-Revokable Gap Acked Chunks in Last SACK 6:10.0.3.2"  ETV
vector 1153  CAIN.eNodeB.sctp  "Number of Gap Missed Chunks in Last SACK 6:10.0.3.2"  ETV
vector 1124  CAIN.eNodeB.sctp  "Number of Gap Acked Chunks in Last SACK 6:10.0.4.2"  ETV
vector 1125  CAIN.eNodeB.sctp  "Number of Non-Revokable Gap Acked Chunks in Last SACK 6:10.0.4.2"  ETV
vector 1126  CAIN.eNodeB.sctp  "Number of Gap Missed Chunks in Last SACK 6:10.0.4.2"  ETV
vector 1178  CAIN.eNodeB.sctp  "Number of Gap Acked Chunks in Last SACK 6:10.0.5.2"  ETV
vector 1179  CAIN.eNodeB.sctp  "Number of Non-Revokable Gap Acked Chunks in Last SACK 6:10.0.5.2"  ETV
vector 1180  CAIN.eNodeB.sctp  "Number of Gap Missed Chunks in Last SACK 6:10.0.5.2"  ETV
vector 859  CAIN.eNodeB.sctp  "Arwnd in Last SACK 3"  ETV
vector 1187  CAIN.eNodeB.sctp  "TSN PseudoCumAck 6:10.0.5.2"  ETV
vector 1188  CAIN.eNodeB.sctp  "TSN RTXPseudoCumAck 6:10.0.5.2"  ETV
vector 1181  CAIN.eNodeB.sctp  "Partial Bytes Acked 6:10.0.5.2"  ETV
vector 1333  CAIN.ueD2DTx[13].tcp  tcpRcvQueueBytes  ETV
vector 1320  CAIN.ueD2DTx[13].tcp  "advertised window"  ETV
vector 1319  CAIN.ueD2DTx[13].tcp  "receive window"  ETV
vector 1322  CAIN.ueD2DTx[13].tcp  "sent ack"  ETV
vector 621  CAIN.ueD2DTx[13].nic.pdcpRrc  receivedPacketFromUpperLayer:vector(packetBytes)  ETV
attr interpolationmode  none
attr source  receivedPacketFromUpperLayer
vector 624  CAIN.ueD2DTx[13].nic.pdcpRrc  sentPacketToLowerLayer:vector(packetBytes)  ETV
attr interpolationmode  none
attr source  sentPacketToLowerLayer
vector 625  CAIN.ueD2DTx[13].nic.mac  receivedPacketFromUpperLayer:vector(packetBytes)  ETV
attr interpolationmode  none
attr source  receivedPacketFromUpperLayer
vector 634  CAIN.ueD2DTx[13].nic.mac  CainMessageSent:vector  ETV
attr interpolationmode  none
attr title  "# of Sent CAIN message, vector"
vector 628  CAIN.ueD2DTx[13].nic.mac  sentPacketToLowerLayer:vector(packetBytes)  ETV
attr interpolationmode  none
attr source  sentPacketToLowerLayer
vector 1357  CAIN.ueD2DTx[19].tcp  tcpRcvQueueBytes  ETV
vector 1344  CAIN.ueD2DTx[19].tcp  "advertised window"  ETV
vector 1343  CAIN.ueD2DTx[19].tcp  "receive window"  ETV
vector 1346  CAIN.ueD2DTx[19].tcp  "sent ack"  ETV
vector 813  CAIN.ueD2DTx[19].nic.pdcpRrc  receivedPacketFromUpperLayer:vector(packetBytes)  ETV
attr interpolationmode  none
attr source  receivedPacketFromUpperLayer
vector 816  CAIN.ueD2DTx[19].nic.pdcpRrc  sentPacketToLowerLayer:vector(packetBytes)  ETV
attr interpolationmode  none
attr source  sentPacketToLowerLayer
vector 817  CAIN.ueD2DTx[19].nic.mac  receivedPacketFromUpperLayer:vector(packetBytes)  ETV
attr interpolationmode  none
attr source  receivedPacketFromUpperLayer
vector 1381  CAIN.ueD2DTx[12].tcp  tcpRcvQueueBytes  ETV
vector 1368  CAIN.ueD2DTx[12].tcp  "advertised window"  ETV
vector 1367  CAIN.ueD2DTx[12].tcp  "receive window"  ETV
vector 1370  CAIN.ueD2DTx[12].tcp  "sent ack"  ETV
vector 589  CAIN.ueD2DTx[12].nic.pdcpRrc  receivedPacketFromUpperLayer:vector(packetBytes)  ETV
attr interpolationmode  none
attr source  receivedPacketFromUpperLayer
vector 592  CAIN.ueD2DTx[12].nic.pdcpRrc  sentPacketToLowerLayer:vector(packetBytes)  ETV
attr interpolationmode  none
attr source  sentPacketToLowerLayer
vector 593  CAIN.ueD2DTx[12].nic.mac  receivedPacketFromUpperLayer:vector(packetBytes)  ETV
attr interpolationmode  none
attr source  receivedPacketFromUpperLayer
vector 603  CAIN.ueD2DTx[12].nic.mac  CainHopMessageSent:vector  ETV
attr interpolationmode  none
attr title  "# of Sent CAIN hop message, vector"
vector 596  CAIN.ueD2DTx[12].nic.mac  sentPacketToLowerLayer:vector(packetBytes)  ETV
attr interpolationmode  none
attr source  sentPacketToLowerLayer
vector 820  CAIN.ueD2DTx[19].nic.mac  sentPacketToLowerLayer:vector(packetBytes)  ETV
attr interpolationmode  none
attr source  sentPacketToLowerLayer
vector 530  CAIN.ueD2DTx[10].nic.mac  receivedPacketFromLowerLayer:vector(packetBytes)  ETV
attr interpolationmode  none
attr source  receivedPacketFromLowerLayer
vector 532  CAIN.ueD2DTx[10].nic.mac  sentPacketToLowerLayer:vector(packetBytes)  ETV
attr interpolationmode  none
attr source  sentPacketToLowerLayer
vector 786  CAIN.ueD2DTx[18].nic.mac  receivedPacketFromLowerLayer:vector(packetBytes)  ETV
attr interpolationmode  none
attr source  receivedPacketFromLowerLayer
vector 788  CAIN.ueD2DTx[18].nic.mac  sentPacketToLowerLayer:vector(packetBytes)  ETV
attr interpolationmode  none
attr source  sentPacketToLowerLayer
vector 111  CAIN.eNodeB.nic.mac  racpkt:vector  ETV
attr interpolationmode  none
attr title  "eNB received racpkt message, vector"
vector 112  CAIN.eNodeB.nic.mac  racDistanceSignal:vector  ETV
attr interpolationmode  none
attr title  "Rac distance to enb, vector"
vector 113  CAIN.eNodeB.nic.mac  racServedDevsSignal:vector  ETV
attr interpolationmode  none
attr title  "# of devices served on rac arriavall, vector"
vector 98  CAIN.eNodeB.nic.mac  sentPacketToLowerLayer:vector(packetBytes)  ETV
attr interpolationmode  none
attr source  sentPacketToLowerLayer
vector 106  CAIN.eNodeB.nic.mac  DistanceSignal:vector  ETV
attr interpolationmode  none
attr title  "Distance to enb, vector"
vector 100  CAIN.eNodeB.nic.mac  CainMessage:vector  ETV
attr interpolationmode  none
attr title  "eNB received CAIN message, vector"
vector 818  CAIN.ueD2DTx[19].nic.mac  receivedPacketFromLowerLayer:vector(packetBytes)  ETV
attr interpolationmode  none
attr source  receivedPacketFromLowerLayer
vector 536  CAIN.ueD2DTx[10].nic.mac  DropedCainMessage:vector  ETV
attr interpolationmode  none
attr title  "Droped CAIN message due to RB not available, vector"
vector 101  CAIN.eNodeB.nic.mac  CainHopMessage:vector  ETV
attr interpolationmode  none
attr title  "eNB received CAIN hop message, vector"
vector 537  CAIN.ueD2DTx[10].nic.mac  DropedHopMessage:vector  ETV
attr interpolationmode  none
attr title  "Droped Hop CAIN message due to RB not available, vector"
vector 115  CAIN.eNodeB.nic.phy  averageCqiUlvect:vector  ETV
attr source  averageCqiUlvect
attr title  "Average Cqi reported in UL, vector"
attr unit  cqi
vector 1405  CAIN.ueD2DTx[11].tcp  tcpRcvQueueBytes  ETV
vector 1392  CAIN.ueD2DTx[11].tcp  "advertised window"  ETV
vector 1391  CAIN.ueD2DTx[11].tcp  "receive window"  ETV
vector 1394  CAIN.ueD2DTx[11].tcp  "sent ack"  ETV
vector 557  CAIN.ueD2DTx[11].nic.pdcpRrc  receivedPacketFromUpperLayer:vector(packetBytes)  ETV
attr interpolationmode  none
attr source  receivedPacketFromUpperLayer
vector 560  CAIN.ueD2DTx[11].nic.pdcpRrc  sentPacketToLowerLayer:vector(packetBytes)  ETV
attr interpolationmode  none
attr source  sentPacketToLowerLayer
vector 561  CAIN.ueD2DTx[11].nic.mac  receivedPacketFromUpperLayer:vector(packetBytes)  ETV
attr interpolationmode  none
attr source  receivedPacketFromUpperLayer
vector 564  CAIN.ueD2DTx[11].nic.mac  sentPacketToLowerLayer:vector(packetBytes)  ETV
attr interpolationmode  none
attr source  sentPacketToLowerLayer
vector 562  CAIN.ueD2DTx[11].nic.mac  receivedPacketFromLowerLayer:vector(packetBytes)  ETV
attr interpolationmode  none
attr source  receivedPacketFromLowerLayer
vector 1429  CAIN.ueD2DTx[7].tcp  tcpRcvQueueBytes  ETV
vector 1416  CAIN.ueD2DTx[7].tcp  "advertised window"  ETV
vector 1415  CAIN.ueD2DTx[7].tcp  "receive window"  ETV
vector 1418  CAIN.ueD2DTx[7].tcp  "sent ack"  ETV
vector 429  CAIN.ueD2DTx[7].nic.pdcpRrc  receivedPacketFromUpperLayer:vector(packetBytes)  ETV
attr interpolationmode  none
attr source  receivedPacketFromUpperLayer
vector 432  CAIN.ueD2DTx[7].nic.pdcpRrc  sentPacketToLowerLayer:vector(packetBytes)  ETV
attr interpolationmode  none
attr source  sentPacketToLowerLayer
vector 433  CAIN.ueD2DTx[7].nic.mac  receivedPacketFromUpperLayer:vector(packetBytes)  ETV
attr interpolationmode  none
attr source  receivedPacketFromUpperLayer
vector 436  CAIN.ueD2DTx[7].nic.mac  sentPacketToLowerLayer:vector(packetBytes)  ETV
attr interpolationmode  none
attr source  sentPacketToLowerLayer
vector 1453  CAIN.ueD2DTx[6].tcp  tcpRcvQueueBytes  ETV
vector 1440  CAIN.ueD2DTx[6].tcp  "advertised window"  ETV
vector 1439  CAIN.ueD2DTx[6].tcp  "receive window"  ETV
vector 1442  CAIN.ueD2DTx[6].tcp  "sent ack"  ETV
vector 397  CAIN.ueD2DTx[6].nic.pdcpRrc  receivedPacketFromUpperLayer:vector(packetBytes)  ETV
attr interpolationmode  none
attr source  receivedPacketFromUpperLayer
vector 400  CAIN.ueD2DTx[6].nic.pdcpRrc  sentPacketToLowerLayer:vector(packetBytes)  ETV
attr interpolationmode  none
attr source  sentPacketToLowerLayer
vector 401  CAIN.ueD2DTx[6].nic.mac  receivedPacketFromUpperLayer:vector(packetBytes)  ETV
attr interpolationmode  none
attr source  receivedPacketFromUpperLayer
vector 411  CAIN.ueD2DTx[6].nic.mac  CainHopMessageSent:vector  ETV
attr interpolationmode  none
attr title  "# of Sent CAIN hop message, vector"
vector 404  CAIN.ueD2DTx[6].nic.mac  sentPacketToLowerLayer:vector(packetBytes)  ETV
attr interpolationmode  none
attr source  sentPacketToLowerLayer
vector 563  CAIN.ueD2DTx[11].nic.mac  sentPacketToUpperLayer:vector(packetBytes)  ETV
attr interpolationmode  none
attr source  sentPacketToUpperLayer
vector 498  CAIN.ueD2DTx[9].nic.mac  receivedPacketFromLowerLayer:vector(packetBytes)  ETV
attr interpolationmode  none
attr source  receivedPacketFromLowerLayer
vector 500  CAIN.ueD2DTx[9].nic.mac  sentPacketToLowerLayer:vector(packetBytes)  ETV
attr interpolationmode  none
attr source  sentPacketToLowerLayer
vector 434  CAIN.ueD2DTx[7].nic.mac  receivedPacketFromLowerLayer:vector(packetBytes)  ETV
attr interpolationmode  none
attr source  receivedPacketFromLowerLayer
vector 435  CAIN.ueD2DTx[7].nic.mac  sentPacketToUpperLayer:vector(packetBytes)  ETV
attr interpolationmode  none
attr source  sentPacketToUpperLayer
vector 109  CAIN.eNodeB.nic.mac  ServedHopDevs:vector  ETV
attr interpolationmode  none
attr title  "# of devices served on hop forwarding, vector"
vector 1477  CAIN.ueD2DTx[2].tcp  tcpRcvQueueBytes  ETV
vector 1464  CAIN.ueD2DTx[2].tcp  "advertised window"  ETV
vector 1463  CAIN.ueD2DTx[2].tcp  "receive window"  ETV
vector 1466  CAIN.ueD2DTx[2].tcp  "sent ack"  ETV
vector 269  CAIN.ueD2DTx[2].nic.pdcpRrc  receivedPacketFromUpperLayer:vector(packetBytes)  ETV
attr interpolationmode  none
attr source  receivedPacketFromUpperLayer
vector 272  CAIN.ueD2DTx[2].nic.pdcpRrc  sentPacketToLowerLayer:vector(packetBytes)  ETV
attr interpolationmode  none
attr source  sentPacketToLowerLayer
vector 273  CAIN.ueD2DTx[2].nic.mac  receivedPacketFromUpperLayer:vector(packetBytes)  ETV
attr interpolationmode  none
attr source  receivedPacketFromUpperLayer
vector 276  CAIN.ueD2DTx[2].nic.mac  sentPacketToLowerLayer:vector(packetBytes)  ETV
attr interpolationmode  none
attr source  sentPacketToLowerLayer
vector 1501  CAIN.ueD2DTx[10].tcp  tcpRcvQueueBytes  ETV
vector 1488  CAIN.ueD2DTx[10].tcp  "advertised window"  ETV
vector 1487  CAIN.ueD2DTx[10].tcp  "receive window"  ETV
vector 1490  CAIN.ueD2DTx[10].tcp  "sent ack"  ETV
vector 525  CAIN.ueD2DTx[10].nic.pdcpRrc  receivedPacketFromUpperLayer:vector(packetBytes)  ETV
attr interpolationmode  none
attr source  receivedPacketFromUpperLayer
vector 528  CAIN.ueD2DTx[10].nic.pdcpRrc  sentPacketToLowerLayer:vector(packetBytes)  ETV
attr interpolationmode  none
attr source  sentPacketToLowerLayer
vector 529  CAIN.ueD2DTx[10].nic.mac  receivedPacketFromUpperLayer:vector(packetBytes)  ETV
attr interpolationmode  none
attr source  receivedPacketFromUpperLayer
vector 1525  CAIN.ueD2DTx[14].tcp  tcpRcvQueueBytes  ETV
vector 1512  CAIN.ueD2DTx[14].tcp  "advertised window"  ETV
vector 1511  CAIN.ueD2DTx[14].tcp  "receive window"  ETV
vector 1514  CAIN.ueD2DTx[14].tcp  "sent ack"  ETV
vector 653  CAIN.ueD2DTx[14].nic.pdcpRrc  receivedPacketFromUpperLayer:vector(packetBytes)  ETV
attr interpolationmode  none
attr source  receivedPacketFromUpperLayer
vector 656  CAIN.ueD2DTx[14].nic.pdcpRrc  sentPacketToLowerLayer:vector(packetBytes)  ETV
attr interpolationmode  none
attr source  sentPacketToLowerLayer
vector 657  CAIN.ueD2DTx[14].nic.mac  receivedPacketFromUpperLayer:vector(packetBytes)  ETV
attr interpolationmode  none
attr source  receivedPacketFromUpperLayer
vector 666  CAIN.ueD2DTx[14].nic.mac  CainMessageSent:vector  ETV
attr interpolationmode  none
attr title  "# of Sent CAIN message, vector"
vector 660  CAIN.ueD2DTx[14].nic.mac  sentPacketToLowerLayer:vector(packetBytes)  ETV
attr interpolationmode  none
attr source  sentPacketToLowerLayer
vector 274  CAIN.ueD2DTx[2].nic.mac  receivedPacketFromLowerLayer:vector(packetBytes)  ETV
attr interpolationmode  none
attr source  receivedPacketFromLowerLayer
vector 275  CAIN.ueD2DTx[2].nic.mac  sentPacketToUpperLayer:vector(packetBytes)  ETV
attr interpolationmode  none
attr source  sentPacketToUpperLayer
vector 1549  CAIN.ueD2DTx[4].tcp  tcpRcvQueueBytes  ETV
vector 1536  CAIN.ueD2DTx[4].tcp  "advertised window"  ETV
vector 1535  CAIN.ueD2DTx[4].tcp  "receive window"  ETV
vector 1538  CAIN.ueD2DTx[4].tcp  "sent ack"  ETV
vector 333  CAIN.ueD2DTx[4].nic.pdcpRrc  receivedPacketFromUpperLayer:vector(packetBytes)  ETV
attr interpolationmode  none
attr source  receivedPacketFromUpperLayer
vector 336  CAIN.ueD2DTx[4].nic.pdcpRrc  sentPacketToLowerLayer:vector(packetBytes)  ETV
attr interpolationmode  none
attr source  sentPacketToLowerLayer
vector 337  CAIN.ueD2DTx[4].nic.mac  receivedPacketFromUpperLayer:vector(packetBytes)  ETV
attr interpolationmode  none
attr source  receivedPacketFromUpperLayer
vector 347  CAIN.ueD2DTx[4].nic.mac  CainHopMessageSent:vector  ETV
attr interpolationmode  none
attr title  "# of Sent CAIN hop message, vector"
vector 340  CAIN.ueD2DTx[4].nic.mac  sentPacketToLowerLayer:vector(packetBytes)  ETV
attr interpolationmode  none
attr source  sentPacketToLowerLayer
vector 826  CAIN.ueD2DTx[19].nic.mac  CainMessageSent:vector  ETV
attr interpolationmode  none
attr title  "# of Sent CAIN message, vector"
vector 1573  CAIN.ueD2DTx[8].tcp  tcpRcvQueueBytes  ETV
vector 1560  CAIN.ueD2DTx[8].tcp  "advertised window"  ETV
vector 1559  CAIN.ueD2DTx[8].tcp  "receive window"  ETV
vector 1562  CAIN.ueD2DTx[8].tcp  "sent ack"  ETV
vector 461  CAIN.ueD2DTx[8].nic.pdcpRrc  receivedPacketFromUpperLayer:vector(packetBytes)  ETV
attr interpolationmode  none
attr source  receivedPacketFromUpperLayer
vector 464  CAIN.ueD2DTx[8].nic.pdcpRrc  sentPacketToLowerLayer:vector(packetBytes)  ETV
attr interpolationmode  none
attr source  sentPacketToLowerLayer
vector 465  CAIN.ueD2DTx[8].nic.mac  receivedPacketFromUpperLayer:vector(packetBytes)  ETV
attr interpolationmode  none
attr source  receivedPacketFromUpperLayer
vector 474  CAIN.ueD2DTx[8].nic.mac  CainMessageSent:vector  ETV
attr interpolationmode  none
attr title  "# of Sent CAIN message, vector"
vector 468  CAIN.ueD2DTx[8].nic.mac  sentPacketToLowerLayer:vector(packetBytes)  ETV
attr interpolationmode  none
attr source  sentPacketToLowerLayer
vector 108  CAIN.eNodeB.nic.mac  ServedDevs:vector  ETV
attr interpolationmode  none
attr title  "# of devices served on cain forwarding, vector"
vector 1597  CAIN.ueD2DTx[9].tcp  tcpRcvQueueBytes  ETV
vector 1584  CAIN.ueD2DTx[9].tcp  "advertised window"  ETV
vector 1583  CAIN.ueD2DTx[9].tcp  "receive window"  ETV
vector 1586  CAIN.ueD2DTx[9].tcp  "sent ack"  ETV
vector 493  CAIN.ueD2DTx[9].nic.pdcpRrc  receivedPacketFromUpperLayer:vector(packetBytes)  ETV
attr interpolationmode  none
attr source  receivedPacketFromUpperLayer
vector 496  CAIN.ueD2DTx[9].nic.pdcpRrc  sentPacketToLowerLayer:vector(packetBytes)  ETV
attr interpolationmode  none
attr source  sentPacketToLowerLayer
vector 497  CAIN.ueD2DTx[9].nic.mac  receivedPacketFromUpperLayer:vector(packetBytes)  ETV
attr interpolationmode  none
attr source  receivedPacketFromUpperLayer
vector 506  CAIN.ueD2DTx[9].nic.mac  CainMessageSent:vector  ETV
attr interpolationmode  none
attr title  "# of Sent CAIN message, vector"
vector 1621  CAIN.ueD2DTx[15].tcp  tcpRcvQueueBytes  ETV
vector 1608  CAIN.ueD2DTx[15].tcp  "advertised window"  ETV
vector 1607  CAIN.ueD2DTx[15].tcp  "receive window"  ETV
vector 1610  CAIN.ueD2DTx[15].tcp  "sent ack"  ETV
vector 685  CAIN.ueD2DTx[15].nic.pdcpRrc  receivedPacketFromUpperLayer:vector(packetBytes)  ETV
attr interpolationmode  none
attr source  receivedPacketFromUpperLayer
vector 688  CAIN.ueD2DTx[15].nic.pdcpRrc  sentPacketToLowerLayer:vector(packetBytes)  ETV
attr interpolationmode  none
attr source  sentPacketToLowerLayer
vector 689  CAIN.ueD2DTx[15].nic.mac  receivedPacketFromUpperLayer:vector(packetBytes)  ETV
attr interpolationmode  none
attr source  receivedPacketFromUpperLayer
vector 692  CAIN.ueD2DTx[15].nic.mac  sentPacketToLowerLayer:vector(packetBytes)  ETV
attr interpolationmode  none
attr source  sentPacketToLowerLayer
vector 1645  CAIN.ueD2DTx[17].tcp  tcpRcvQueueBytes  ETV
vector 1632  CAIN.ueD2DTx[17].tcp  "advertised window"  ETV
vector 1631  CAIN.ueD2DTx[17].tcp  "receive window"  ETV
vector 1634  CAIN.ueD2DTx[17].tcp  "sent ack"  ETV
vector 749  CAIN.ueD2DTx[17].nic.pdcpRrc  receivedPacketFromUpperLayer:vector(packetBytes)  ETV
attr interpolationmode  none
attr source  receivedPacketFromUpperLayer
vector 752  CAIN.ueD2DTx[17].nic.pdcpRrc  sentPacketToLowerLayer:vector(packetBytes)  ETV
attr interpolationmode  none
attr source  sentPacketToLowerLayer
vector 753  CAIN.ueD2DTx[17].nic.mac  receivedPacketFromUpperLayer:vector(packetBytes)  ETV
attr interpolationmode  none
attr source  receivedPacketFromUpperLayer
vector 1669  CAIN.ueD2DTx[0].tcp  tcpRcvQueueBytes  ETV
vector 1656  CAIN.ueD2DTx[0].tcp  "advertised window"  ETV
vector 1655  CAIN.ueD2DTx[0].tcp  "receive window"  ETV
vector 1658  CAIN.ueD2DTx[0].tcp  "sent ack"  ETV
vector 205  CAIN.ueD2DTx[0].nic.pdcpRrc  receivedPacketFromUpperLayer:vector(packetBytes)  ETV
attr interpolationmode  none
attr source  receivedPacketFromUpperLayer
vector 208  CAIN.ueD2DTx[0].nic.pdcpRrc  sentPacketToLowerLayer:vector(packetBytes)  ETV
attr interpolationmode  none
attr source  sentPacketToLowerLayer
vector 209  CAIN.ueD2DTx[0].nic.mac  receivedPacketFromUpperLayer:vector(packetBytes)  ETV
attr interpolationmode  none
attr source  receivedPacketFromUpperLayer
vector 219  CAIN.ueD2DTx[0].nic.mac  CainHopMessageSent:vector  ETV
attr interpolationmode  none
attr title  "# of Sent CAIN hop message, vector"
vector 212  CAIN.ueD2DTx[0].nic.mac  sentPacketToLowerLayer:vector(packetBytes)  ETV
attr interpolationmode  none
attr source  sentPacketToLowerLayer
vector 763  CAIN.ueD2DTx[17].nic.mac  CainHopMessageSent:vector  ETV
attr interpolationmode  none
attr title  "# of Sent CAIN hop message, vector"
vector 756  CAIN.ueD2DTx[17].nic.mac  sentPacketToLowerLayer:vector(packetBytes)  ETV
attr interpolationmode  none
attr source  sentPacketToLowerLayer
vector 690  CAIN.ueD2DTx[15].nic.mac  receivedPacketFromLowerLayer:vector(packetBytes)  ETV
attr interpolationmode  none
attr source  receivedPacketFromLowerLayer
vector 691  CAIN.ueD2DTx[15].nic.mac  sentPacketToUpperLayer:vector(packetBytes)  ETV
attr interpolationmode  none
attr source  sentPacketToUpperLayer
vector 1301  CAIN.eNodeB1.sctp  "SendQueue of Association 5"  ETV
vector 1065  CAIN.eNodeB1.sctp  "TSN Sent 5:10.0.5.1"  ETV
vector 1072  CAIN.eNodeB1.sctp  "Outstanding Bytes 5:10.0.5.1"  ETV
vector 870  CAIN.eNodeB1.sctp  "Outstanding Bytes 4:Total"  ETV
vector 1071  CAIN.eNodeB1.sctp  "Queued Sent Bytes 5:10.0.5.1"  ETV
vector 869  CAIN.eNodeB1.sctp  "Queued Sent Bytes 4:Total"  ETV
vector 914  CAIN.eNodeB.sctp  "TSN Received 1:10.0.5.2"  ETV
vector 890  CAIN.eNodeB.sctp  "Queued Received Bytes 1:Total"  ETV
vector 886  CAIN.eNodeB.sctp  "Advertised Receiver Window 1"  ETV
vector 895  CAIN.eNodeB.sctp  "Number of Total Gap Blocks Stored 1"  ETV
vector 896  CAIN.eNodeB.sctp  "Number of Revokable Gap Blocks Stored 1"  ETV
vector 897  CAIN.eNodeB.sctp  "Number of Non-Revokable Gap Blocks Stored 1"  ETV
vector 898  CAIN.eNodeB.sctp  "Number of Duplicate TSNs Stored 1"  ETV
vector 902  CAIN.eNodeB.sctp  "Length of SACK Sent 1"  ETV
vector 899  CAIN.eNodeB.sctp  "Number of Revokable Gap Blocks Sent 1"  ETV
vector 900  CAIN.eNodeB.sctp  "Number of Non-Revokable Gap Blocks Sent 1"  ETV
vector 901  CAIN.eNodeB.sctp  "Number of Duplicate TSNs Sent 1"  ETV
vector 906  CAIN.eNodeB.sctp  "End to End Delay of Association 1"  ETV
vector 141  CAIN.eNodeB.x2App[0].client  rcvdPk:vector(packetBytes)  ETV
attr interpolationmode  none
attr source  rcvdPk
attr title  "packets received, vector(packetBytes)"
vector 1300  CAIN.eNodeB1.sctp  "Number of Gap Blocks in Last SACK of Association 5"  ETV
vector 871  CAIN.eNodeB1.sctp  "Number of Revokable Gap Blocks in SACK 4"  ETV
vector 872  CAIN.eNodeB1.sctp  "Number of Non-Revokable Gap Blocks in SACK 4"  ETV
vector 1082  CAIN.eNodeB1.sctp  "TSN Acked CumAck 5:10.0.5.1"  ETV
vector 1048  CAIN.eNodeB1.sctp  "Number of Gap Acked Chunks in Last SACK 5:10.0.2.2"  ETV
vector 1049  CAIN.eNodeB1.sctp  "Number of Non-Revokable Gap Acked Chunks in Last SACK 5:10.0.2.2"  ETV
vector 1050  CAIN.eNodeB1.sctp  "Number of Gap Missed Chunks in Last SACK 5:10.0.2.2"  ETV
vector 1021  CAIN.eNodeB1.sctp  "Number of Gap Acked Chunks in Last SACK 5:10.0.4.1"  ETV
vector 1022  CAIN.eNodeB1.sctp  "Number of Non-Revokable Gap Acked Chunks in Last SACK 5:10.0.4.1"  ETV
vector 1023  CAIN.eNodeB1.sctp  "Number of Gap Missed Chunks in Last SACK 5:10.0.4.1"  ETV
vector 1075  CAIN.eNodeB1.sctp  "Number of Gap Acked Chunks in Last SACK 5:10.0.5.1"  ETV
vector 1076  CAIN.eNodeB1.sctp  "Number of Non-Revokable Gap Acked Chunks in Last SACK 5:10.0.5.1"  ETV
vector 1077  CAIN.eNodeB1.sctp  "Number of Gap Missed Chunks in Last SACK 5:10.0.5.1"  ETV
vector 881  CAIN.eNodeB1.sctp  "Arwnd in Last SACK 4"  ETV
vector 1084  CAIN.eNodeB1.sctp  "TSN PseudoCumAck 5:10.0.5.1"  ETV
vector 1085  CAIN.eNodeB1.sctp  "TSN RTXPseudoCumAck 5:10.0.5.1"  ETV
vector 1078  CAIN.eNodeB1.sctp  "Partial Bytes Acked 5:10.0.5.1"  ETV
vector 1693  CAIN.ueD2DTx[1].tcp  tcpRcvQueueBytes  ETV
vector 1680  CAIN.ueD2DTx[1].tcp  "advertised window"  ETV
vector 1679  CAIN.ueD2DTx[1].tcp  "receive window"  ETV
vector 1682  CAIN.ueD2DTx[1].tcp  "sent ack"  ETV
vector 237  CAIN.ueD2DTx[1].nic.pdcpRrc  receivedPacketFromUpperLayer:vector(packetBytes)  ETV
attr interpolationmode  none
attr source  receivedPacketFromUpperLayer
vector 240  CAIN.ueD2DTx[1].nic.pdcpRrc  sentPacketToLowerLayer:vector(packetBytes)  ETV
attr interpolationmode  none
attr source  sentPacketToLowerLayer
vector 241  CAIN.ueD2DTx[1].nic.mac  receivedPacketFromUpperLayer:vector(packetBytes)  ETV
attr interpolationmode  none
attr source  receivedPacketFromUpperLayer
vector 251  CAIN.ueD2DTx[1].nic.mac  CainHopMessageSent:vector  ETV
attr interpolationmode  none
attr title  "# of Sent CAIN hop message, vector"
vector 244  CAIN.ueD2DTx[1].nic.mac  sentPacketToLowerLayer:vector(packetBytes)  ETV
attr interpolationmode  none
attr source  sentPacketToLowerLayer
vector 1717  CAIN.ueD2DTx[5].tcp  tcpRcvQueueBytes  ETV
vector 1704  CAIN.ueD2DTx[5].tcp  "advertised window"  ETV
vector 1703  CAIN.ueD2DTx[5].tcp  "receive window"  ETV
vector 1706  CAIN.ueD2DTx[5].tcp  "sent ack"  ETV
vector 365  CAIN.ueD2DTx[5].nic.pdcpRrc  receivedPacketFromUpperLayer:vector(packetBytes)  ETV
attr interpolationmode  none
attr source  receivedPacketFromUpperLayer
vector 368  CAIN.ueD2DTx[5].nic.pdcpRrc  sentPacketToLowerLayer:vector(packetBytes)  ETV
attr interpolationmode  none
attr source  sentPacketToLowerLayer
vector 369  CAIN.ueD2DTx[5].nic.mac  receivedPacketFromUpperLayer:vector(packetBytes)  ETV
attr interpolationmode  none
attr source  receivedPacketFromUpperLayer
vector 379  CAIN.ueD2DTx[5].nic.mac  CainHopMessageSent:vector  ETV
attr interpolationmode  none
attr title  "# of Sent CAIN hop message, vector"
vector 372  CAIN.ueD2DTx[5].nic.mac  sentPacketToLowerLayer:vector(packetBytes)  ETV
attr interpolationmode  none
attr source  sentPacketToLowerLayer
vector 154  CAIN.eNodeB1.nic.mac  receivedPacketFromLowerLayer:vector(packetBytes)  ETV
attr interpolationmode  none
attr source  receivedPacketFromLowerLayer
vector 466  CAIN.ueD2DTx[8].nic.mac  receivedPacketFromLowerLayer:vector(packetBytes)  ETV
attr interpolationmode  none
attr source  receivedPacketFromLowerLayer
vector 1741  CAIN.ueD2DTx[3].tcp  tcpRcvQueueBytes  ETV
vector 1728  CAIN.ueD2DTx[3].tcp  "advertised window"  ETV
vector 1727  CAIN.ueD2DTx[3].tcp  "receive window"  ETV
vector 1730  CAIN.ueD2DTx[3].tcp  "sent ack"  ETV
vector 301  CAIN.ueD2DTx[3].nic.pdcpRrc  receivedPacketFromUpperLayer:vector(packetBytes)  ETV
attr interpolationmode  none
attr source  receivedPacketFromUpperLayer
vector 304  CAIN.ueD2DTx[3].nic.pdcpRrc  sentPacketToLowerLayer:vector(packetBytes)  ETV
attr interpolationmode  none
attr source  sentPacketToLowerLayer
vector 305  CAIN.ueD2DTx[3].nic.mac  receivedPacketFromUpperLayer:vector(packetBytes)  ETV
attr interpolationmode  none
attr source  receivedPacketFromUpperLayer
vector 314  CAIN.ueD2DTx[3].nic.mac  CainMessageSent:vector  ETV
attr interpolationmode  none
attr title  "# of Sent CAIN message, vector"
vector 308  CAIN.ueD2DTx[3].nic.mac  sentPacketToLowerLayer:vector(packetBytes)  ETV
attr interpolationmode  none
attr source  sentPacketToLowerLayer
vector 594  CAIN.ueD2DTx[12].nic.mac  receivedPacketFromLowerLayer:vector(packetBytes)  ETV
attr interpolationmode  none
attr source  receivedPacketFromLowerLayer
vector 1765  CAIN.ueD2DTx[16].tcp  tcpRcvQueueBytes  ETV
vector 1752  CAIN.ueD2DTx[16].tcp  "advertised window"  ETV
vector 1751  CAIN.ueD2DTx[16].tcp  "receive window"  ETV
vector 1754  CAIN.ueD2DTx[16].tcp  "sent ack"  ETV
vector 717  CAIN.ueD2DTx[16].nic.pdcpRrc  receivedPacketFromUpperLayer:vector(packetBytes)  ETV
attr interpolationmode  none
attr source  receivedPacketFromUpperLayer
vector 720  CAIN.ueD2DTx[16].nic.pdcpRrc  sentPacketToLowerLayer:vector(packetBytes)  ETV
attr interpolationmode  none
attr source  sentPacketToLowerLayer
vector 721  CAIN.ueD2DTx[16].nic.mac  receivedPacketFromUpperLayer:vector(packetBytes)  ETV
attr interpolationmode  none
attr source  receivedPacketFromUpperLayer
vector 731  CAIN.ueD2DTx[16].nic.mac  CainHopMessageSent:vector  ETV
attr interpolationmode  none
attr title  "# of Sent CAIN hop message, vector"
vector 724  CAIN.ueD2DTx[16].nic.mac  sentPacketToLowerLayer:vector(packetBytes)  ETV
attr interpolationmode  none
attr source  sentPacketToLowerLayer
vector 658  CAIN.ueD2DTx[14].nic.mac  receivedPacketFromLowerLayer:vector(packetBytes)  ETV
attr interpolationmode  none
attr source  receivedPacketFromLowerLayer
vector 626  CAIN.ueD2DTx[13].nic.mac  receivedPacketFromLowerLayer:vector(packetBytes)  ETV
attr interpolationmode  none
attr source  receivedPacketFromLowerLayer
vector 1789  CAIN.ueD2DTx[18].tcp  tcpRcvQueueBytes  ETV
vector 1776  CAIN.ueD2DTx[18].tcp  "advertised window"  ETV
vector 1775  CAIN.ueD2DTx[18].tcp  "receive window"  ETV
vector 1778  CAIN.ueD2DTx[18].tcp  "sent ack"  ETV
vector 781  CAIN.ueD2DTx[18].nic.pdcpRrc  receivedPacketFromUpperLayer:vector(packetBytes)  ETV
attr interpolationmode  none
attr source  receivedPacketFromUpperLayer
vector 784  CAIN.ueD2DTx[18].nic.pdcpRrc  sentPacketToLowerLayer:vector(packetBytes)  ETV
attr interpolationmode  none
attr source  sentPacketToLowerLayer
vector 785  CAIN.ueD2DTx[18].nic.mac  receivedPacketFromUpperLayer:vector(packetBytes)  ETV
attr interpolationmode  none
attr source  receivedPacketFromUpperLayer
vector 795  CAIN.ueD2DTx[18].nic.mac  CainHopMessageSent:vector  ETV
attr interpolationmode  none
attr title  "# of Sent CAIN hop message, vector"
vector 169  CAIN.eNodeB1.nic.mac  racpkt:vector  ETV
attr interpolationmode  none
attr title  "eNB received racpkt message, vector"
vector 170  CAIN.eNodeB1.nic.mac  racDistanceSignal:vector  ETV
attr interpolationmode  none
attr title  "Rac distance to enb, vector"
vector 171  CAIN.eNodeB1.nic.mac  racServedDevsSignal:vector  ETV
attr interpolationmode  none
attr title  "# of devices served on rac arriavall, vector"
vector 156  CAIN.eNodeB1.nic.mac  sentPacketToLowerLayer:vector(packetBytes)  ETV
attr interpolationmode  none
attr source  sentPacketToLowerLayer
vector 627  CAIN.ueD2DTx[13].nic.mac  sentPacketToUpperLayer:vector(packetBytes)  ETV
attr interpolationmode  none
attr source  sentPacketToUpperLayer
vector 595  CAIN.ueD2DTx[12].nic.mac  sentPacketToUpperLayer:vector(packetBytes)  ETV
attr interpolationmode  none
attr source  sentPacketToUpperLayer
vector 402  CAIN.ueD2DTx[6].nic.mac  receivedPacketFromLowerLayer:vector(packetBytes)  ETV
attr interpolationmode  none
attr source  receivedPacketFromLowerLayer
vector 403  CAIN.ueD2DTx[6].nic.mac  sentPacketToUpperLayer:vector(packetBytes)  ETV
attr interpolationmode  none
attr source  sentPacketToUpperLayer
vector 538  CAIN.ueD2DTx[10].nic.mac  CainMessageSent:vector  ETV
attr interpolationmode  none
attr title  "# of Sent CAIN message, vector"
vector 499  CAIN.ueD2DTx[9].nic.mac  sentPacketToUpperLayer:vector(packetBytes)  ETV
attr interpolationmode  none
attr source  sentPacketToUpperLayer
vector 210  CAIN.ueD2DTx[0].nic.mac  receivedPacketFromLowerLayer:vector(packetBytes)  ETV
attr interpolationmode  none
attr source  receivedPacketFromLowerLayer
vector 754  CAIN.ueD2DTx[17].nic.mac  receivedPacketFromLowerLayer:vector(packetBytes)  ETV
attr interpolationmode  none
attr source  receivedPacketFromLowerLayer
vector 755  CAIN.ueD2DTx[17].nic.mac  sentPacketToUpperLayer:vector(packetBytes)  ETV
attr interpolationmode  none
attr source  sentPacketToUpperLayer
vector 659  CAIN.ueD2DTx[14].nic.mac  sentPacketToUpperLayer:vector(packetBytes)  ETV
attr interpolationmode  none
attr source  sentPacketToUpperLayer
vector 467  CAIN.ueD2DTx[8].nic.mac  sentPacketToUpperLayer:vector(packetBytes)  ETV
attr interpolationmode  none
attr source  sentPacketToUpperLayer
vector 570  CAIN.ueD2DTx[11].nic.mac  CainMessageSent:vector  ETV
attr interpolationmode  none
attr title  "# of Sent CAIN message, vector"
vector 442  CAIN.ueD2DTx[7].nic.mac  CainMessageSent:vector  ETV
attr interpolationmode  none
attr title  "# of Sent CAIN message, vector"
1108	50722 24 150 150 0.0000001228 0.0000001228 1 0 0 0 0
1219	50746 28 235 235 0.0000006304 0.0000006304 1 65535 65535 65535 4294836225
1220	50774 27 235 235 0.0000006304 0.0000006304 1 8940 8940 8940 79923600
1221	50801 29 235 235 0.0000006304 0.0000006304 1 0.3725 0.3725 0.3725 0.13875625
1217	50830 24 235 235 0.0000006304 0.0000006304 1 3 3 3 9
1224	50854 24 235 235 0.0000006304 0.0000006304 1 1 1 1 1
1236	50878 24 163 163 0.0000003096 0.0000003096 1 0 0 0 0
1192	50902 28 235 235 0.0000006304 0.0000006304 1 65535 65535 65535 4294836225
1193	50930 27 235 235 0.0000006304 0.0000006304 1 8940 8940 8940 79923600
1194	50957 29 235 235 0.0000006304 0.0000006304 1 0.3725 0.3725 0.3725 0.13875625
1190	50986 24 235 235 0.0000006304 0.0000006304 1 3 3 3 9
1197	51010 24 235 235 0.0000006304 0.0000006304 1 1 1 1 1
1209	51034 24 163 163 0.0000003096 0.0000003096 1 0 0 0 0
910	51058 27 235 235 0.0000006304 0.0000006304 1 65535 65535 65535 4294836225
911	51085 26 235 235 0.0000006304 0.0000006304 1 8940 8940 8940 79923600
912	51111 28 235 235 0.0000006304 0.0000006304 1 0.3725 0.3725 0.3725 0.13875625
908	51139 46 235 302 0.0000006304 0.0000008564 2 1 3 4 10
909	51185 30 302 302 0.0000008564 0.0000008564 1 2.26e-07 2.26e-07 2.26e-07 5.1076e-14
914	51215 3012 3713 14737 0.0570000972 0.2570021596 108 2000 2107 221778 455526090
917	54227 44 207 221 0.000000552 0.000000596 2 1 2 3 5
916	54271 44 207 221 0.000000552 0.000000596 2 1 2 3 5
918	54315 46 302 308 0.0000008564 0.0000009004 2 1 2 3 5
927	54361 12 131 131 0 0 1 0 0 0 0
886	54373 86 3713 25305 0.0570000972 0.4570021596 3 65533 65535 196603 12884246539
890	54459 2765 3713 25305 0.0570000972 0.4570021596 111 0 192 218 37356
895	57224 74 3713 25305 0.0570000972 0.4570021596 3 0 0 0 0
896	57298 74 3713 25305 0.0570000972 0.4570021596 3 0 0 0 0
897	57372 74 3713 25305 0.0570000972 0.4570021596 3 0 0 0 0
898	57446 74 3713 25305 0.0570000972 0.4570021596 3 0 0 0 0
899	57520 74 3713 25305 0.0570000972 0.4570021596 3 0 0 0 0
900	57594 74 3713 25305 0.0570000972 0.4570021596 3 0 0 0 0
901	57668 74 3713 25305 0.0570000972 0.4570021596 3 0 0 0 0
902	57742 77 3713 25305 0.0570000972 0.4570021596 3 16 16 48 768
904	57819 27 163 163 0.0000003096 0.0000003096 1 65535 65535 65535 4294836225
906	57846 3647 3716 14834 0.0570000972 0.2570021596 108 9.72e-08 1.6172e-06 0.0001581776 2.5180935872e-10
907	61493 12 131 131 0 0 1 0 0 0 0
1138	61505 27 178 178 0.000000458 0.000000458 1 65535 65535 65535 4294836225
1139	61532 26 178 178 0.000000458 0.000000458 1 8940 8940 8940 79923600
1140	61558 28 178 178 0.000000458 0.000000458 1 0.3725 0.3725 0.3725 0.13875625
1136	61586 23 178 178 0.000000458 0.000000458 1 3 3 3 9
1143	61609 23 178 178 0.000000458 0.000000458 1 1 1 1 1
1151	61632 76 651 22787 0.0070001912 0.4070022536 3 0 0 0 0
1152	61708 76 651 22787 0.0070001912 0.4070022536 3 0 0 0 0
1153	61784 76 651 22787 0.0070001912 0.4070022536 3 0 0 0 0
1155	61860 24 150 150 0.0000001228 0.0000001228 1 0 0 0 0
1111	61884 27 178 178 0.000000458 0.000000458 1 65535 65535 65535 4294836225
1112	61911 26 178 178 0.000000458 0.000000458 1 8940 8940 8940 79923600
1113	61937 28 178 178 0.000000458 0.000000458 1 0.3725 0.3725 0.3725 0.13875625
1109	61965 23 178 178 0.000000458 0.000000458 1 3 3 3 9
1116	61988 23 178 178 0.000000458 0.000000458 1 1 1 1 1
1124	62011 76 651 22787 0.0070001912 0.4070022536 3 0 0 0 0
1125	62087 76 651 22787 0.0070001912 0.4070022536 3 0 0 0 0
1126	62163 76 651 22787 0.0070001912 0.4070022536 3 0 0 0 0
1128	62239 24 150 150 0.0000001228 0.0000001228 1 0 0 0 0
1165	62263 57 178 63091 0.000000458 1.2070005424 2 65535 65535 131070 8589672450
1166	62320 55 178 63091 0.000000458 1.2070005424 2 8940 8940 17880 159847200
1167	62375 58 178 63091 0.000000458 1.2070005424 2 0.3725 23.84 24.2125 568.48435625
1163	62433 123 178 22787 0.000000458 0.4070022536 5 1 3 7 13
1164	62556 138 255 22787 0.0000006744 0.4070022536 4 1.912e-07 0.2000017112 0.40000247 0.080000824963135
1168	62694 3101 597 11750 0.007 0.2070005424 108 2000 2107 221778 455526090
1172	65795 48 273 287 0.0000007624 0.0000008064 2 1 2 3 5
1171	65843 48 273 287 0.0000007624 0.0000008064 2 1 2 3 5
1173	65891 48 255 265 0.0000006744 0.0000007184 2 1 2 3 5
1174	65939 5872 597 22787 0.007 0.4070022536 216 0 192 18676 2362992
1175	71811 5872 597 22787 0.007 0.4070022536 216 0 192 18676 2362992
1178	77683 76 651 22787 0.0070001912 0.4070022536 3 0 0 0 0
1179	77759 76 651 22787 0.0070001912 0.4070022536 3 0 0 0 0
1180	77835 76 651 22787 0.0070001912 0.4070022536 3 0 0 0 0
1181	77911 76 651 22787 0.0070001912 0.4070022536 3 0 0 0 0
1182	77987 24 150 150 0.0000001228 0.0000001228 1 0 0 0 0
1185	78011 85 651 22787 0.0070001912 0.4070022536 3 2000 2107 6118 12483570
1187	78096 76 651 22787 0.0070001912 0.4070022536 3 0 0 0 0
1188	78172 76 651 22787 0.0070001912 0.4070022536 3 0 0 0 0
1304	78248 76 651 22787 0.0070001912 0.4070022536 3 0 0 0 0
1305	78324 4873 597 11750 0.007 0.2070005424 216 0 96 9338 590748
848	83197 5656 597 22787 0.007 0.4070022536 216 0 192 18676 2362992
847	88853 5656 597 22787 0.007 0.4070022536 216 0 192 18676 2362992
849	94509 73 651 22787 0.0070001912 0.4070022536 3 0 0 0 0
850	94582 73 651 22787 0.0070001912 0.4070022536 3 0 0 0 0
859	94655 85 651 22787 0.0070001912 0.4070022536 3 65533 65535 196603 12884246539
860	94740 112 150 22787 0.0000001228 0.4070022536 4 65533 65535 262138 17179082764
863	94852 12 123 123 0 0 1 0 0 0 0
1005	94864 24 149 149 0.0000001228 0.0000001228 1 0 0 0 0
1273	94888 28 236 236 0.0000006304 0.0000006304 1 65535 65535 65535 4294836225
1274	94916 27 236 236 0.0000006304 0.0000006304 1 8940 8940 8940 79923600
1275	94943 29 236 236 0.0000006304 0.0000006304 1 0.3725 0.3725 0.3725 0.13875625
1271	94972 24 236 236 0.0000006304 0.0000006304 1 3 3 3 9
1278	94996 24 236 236 0.0000006304 0.0000006304 1 1 1 1 1
1290	95020 24 164 164 0.0000003096 0.0000003096 1 0 0 0 0
1246	95044 28 236 236 0.0000006304 0.0000006304 1 65535 65535 65535 4294836225
1247	95072 27 236 236 0.0000006304 0.0000006304 1 8940 8940 8940 79923600
1248	95099 29 236 236 0.0000006304 0.0000006304 1 0.3725 0.3725 0.3725 0.13875625
1244	95128 24 236 236 0.0000006304 0.0000006304 1 3 3 3 9
1251	95152 24 236 236 0.0000006304 0.0000006304 1 1 1 1 1
1263	95176 24 164 164 0.0000003096 0.0000003096 1 0 0 0 0
959	95200 27 236 236 0.0000006304 0.0000006304 1 65535 65535 65535 4294836225
960	95227 26 236 236 0.0000006304 0.0000006304 1 8940 8940 8940 79923600
961	95253 28 236 236 0.0000006304 0.0000006304 1 0.3725 0.3725 0.3725 0.13875625
957	95281 46 236 301 0.0000006304 0.0000008564 2 1 3 4 10
958	95327 30 301 301 0.0000008564 0.0000008564 1 2.26e-07 2.26e-07 2.26e-07 5.1076e-14
963	95357 3000 639 11757 0.0070000972 0.2070021596 108 2000 2107 221778 455526090
966	98357 44 208 222 0.000000552 0.000000596 2 1 2 3 5
965	98401 44 208 222 0.000000552 0.000000596 2 1 2 3 5
967	98445 46 301 307 0.0000008564 0.0000009004 2 1 2 3 5
976	98491 12 132 132 0 0 1 0 0 0 0
935	98503 85 639 22780 0.0070000972 0.4070021596 3 65533 65535 196603 12884246539
939	98588 2752 639 22780 0.0070000972 0.4070021596 111 0 192 218 37356
944	101340 73 639 22780 0.0070000972 0.4070021596 3 0 0 0 0
945	101413 73 639 22780 0.0070000972 0.4070021596 3 0 0 0 0
946	101486 73 639 22780 0.0070000972 0.4070021596 3 0 0 0 0
947	101559 73 639 22780 0.0070000972 0.4070021596 3 0 0 0 0
948	101632 73 639 22780 0.0070000972 0.4070021596 3 0 0 0 0
949	101705 73 639 22780 0.0070000972 0.4070021596 3 0 0 0 0
950	101778 73 639 22780 0.0070000972 0.4070021596 3 0 0 0 0
951	101851 76 639 22780 0.0070000972 0.4070021596 3 16 16 48 768
953	101927 27 164 164 0.0000003096 0.0000003096 1 65535 65535 65535 4294836225
955	101954 3635 642 11854 0.0070000972 0.2070021596 108 9.72e-08 1.6172e-06 0.0001581776 2.5180935872e-10
956	105589 12 132 132 0 0 1 0 0 0 0
1035	105601 27 177 177 0.000000458 0.000000458 1 65535 65535 65535 4294836225
1036	105628 26 177 177 0.000000458 0.000000458 1 8940 8940 8940 79923600
1037	105654 28 177 177 0.000000458 0.000000458 1 0.3725 0.3725 0.3725 0.13875625
1033	105682 23 177 177 0.000000458 0.000000458 1 3 3 3 9
1040	105705 23 177 177 0.000000458 0.000000458 1 1 1 1 1
1048	105728 77 3725 25312 0.0570001912 0.4570022536 3 0 0 0 0
1049	105805 77 3725 25312 0.0570001912 0.4570022536 3 0 0 0 0
1050	105882 77 3725 25312 0.0570001912 0.4570022536 3 0 0 0 0
1052	105959 24 149 149 0.0000001228 0.0000001228 1 0 0 0 0
1008	105983 27 177 177 0.000000458 0.000000458 1 65535 65535 65535 4294836225
1009	106010 26 177 177 0.000000458 0.000000458 1 8940 8940 8940 79923600
1010	106036 28 177 177 0.000000458 0.000000458 1 0.3725 0.3725 0.3725 0.13875625
1006	106064 23 177 177 0.000000458 0.000000458 1 3 3 3 9
1013	106087 23 177 177 0.000000458 0.000000458 1 1 1 1 1
1021	106110 77 3725 25312 0.0570001912 0.4570022536 3 0 0 0 0
1022	106187 77 3725 25312 0.0570001912 0.4570022536 3 0 0 0 0
1023	106264 77 3725 25312 0.0570001912 0.4570022536 3 0 0 0 0
1025	106341 24 149 149 0.0000001228 0.0000001228 1 0 0 0 0
1062	106365 57 177 65620 0.000000458 1.2570005424 2 65535 65535 131070 8589672450
1063	106422 55 177 65620 0.000000458 1.2570005424 2 8940 8940 17880 159847200
1064	106477 58 177 65620 0.000000458 1.2570005424 2 0.3725 23.84 24.2125 568.48435625
1060	106535 124 177 25312 0.000000458 0.4570022536 5 1 3 7 13
1061	106659 139 256 25312 0.0000006744 0.4570022536 4 1.912e-07 0.2000017112 0.40000247 0.080000824963135
1065	106798 3113 3642 14730 0.057 0.2570005424 108 2000 2107 221778 455526090
1069	109911 48 274 288 0.0000007624 0.0000008064 2 1 2 3 5
1068	109959 48 274 288 0.0000007624 0.0000008064 2 1 2 3 5
1070	110007 48 256 266 0.0000006744 0.0000007184 2 1 2 3 5
1071	110055 5885 3642 25312 0.057 0.4570022536 216 0 192 18676 2362992
1072	115940 5885 3642 25312 0.057 0.4570022536 216 0 192 18676 2362992
1075	121825 77 3725 25312 0.0570001912 0.4570022536 3 0 0 0 0
1076	121902 77 3725 25312 0.0570001912 0.4570022536 3 0 0 0 0
1077	121979 77 3725 25312 0.0570001912 0.4570022536 3 0 0 0 0
1078	122056 77 3725 25312 0.0570001912 0.4570022536 3 0 0 0 0
1079	122133 24 149 149 0.0000001228 0.0000001228 1 0 0 0 0
1082	122157 86 3725 25312 0.0570001912 0.4570022536 3 2000 2107 6118 12483570
1084	122243 77 3725 25312 0.0570001912 0.4570022536 3 0 0 0 0
1085	122320 77 3725 25312 0.0570001912 0.4570022536 3 0 0 0 0
1300	122397 77 3725 25312 0.0570001912 0.4570022536 3 0 0 0 0
1301	122474 4909 3642 14730 0.057 0.2570005424 216 0 96 9338 590748
870	127383 5669 3642 25312 0.057 0.4570022536 216 0 192 18676 2362992
869	133052 5669 3642 25312 0.057 0.4570022536 216 0 192 18676 2362992
871	138721 74 3725 25312 0.0570001912 0.4570022536 3 0 0 0 0
872	138795 74 3725 25312 0.0570001912 0.4570022536 3 0 0 0 0
881	138869 86 3725 25312 0.0570001912 0.4570022536 3 65533 65535 196603 12884246539
882	138955 113 149 25312 0.0000001228 0.4570022536 4 65533 65535 262138 17179082764
885	139068 12 128 128 0 0 1 0 0 0 0
8	139080 8 0 0 0 0 1 0 0 0 0
9	139088 8 0 0 0 0 1 0 0 0 0
24	139096 9 0 0 0 0 1 0 0 0 0
25	139105 9 0 0 0 0 1 0 0 0 0
35	139114 9 0 0 0 0 1 0 0 0 0
36	139123 9 0 0 0 0 1 0 0 0 0
56	139132 9 0 0 0 0 1 0 0 0 0
57	139141 9 0 0 0 0 1 0 0 0 0
67	139150 9 0 0 0 0 1 0 0 0 0
68	139159 9 0 0 0 0 1 0 0 0 0
78	139168 9 0 0 0 0 1 0 0 0 0
79	139177 9 0 0 0 0 1 0 0 0 0
96	139186 437619 378 582221 0.002 10 24859 0 0 0 0
98	576805 166486 1064 582221 0.015 10 9456 0 0 0 0
100	743291 43532 1067 582025 0.015 9.997 2086 1 2086 2176741 3027846731
101	786823 42630 1128 581947 0.017 9.996 2008 1 2008 2017036 2700811204
106	829453 168715 1067 582188 0.015 9.999 8160 323 799 3245001 1337554037
108	998168 38826 2959 582188 0.048 9.999 2072 4 9 14218 99382
109	1036994 39463 1930 582130 0.031 9.998 1994 4 15 27885 392007
111	1076457 219272 1064 582221 0.015 10 10178 1 10178 51800931 351503850789
112	1295729 206043 1064 582221 0.015 10 10178 46 375 1200850 177939338
113	1501772 189666 1064 582221 0.015 10 10178 0 0 0 0
115	1691438 25073 1264 582177 0.019 9.999 1333 2 15 7156 44428
120	1716511 10 0 0 0 0 1 0 0 0 0
121	1716521 10 0 0 0 0 1 0 0 0 0
128	1716531 421 139 25307 0 0.4570021596 18 36 1952 3184 3950560
130	1716952 438 139 25307 0 0.4570021596 18 0 8.8e-08 3.088e-07 1.946112e-14
131	1717390 280 0 258 0 0.0000007124 13 0 2 10 14
132	1717670 828 0 25309 0 0.4570022036 37 0 1 18 18
133	1718498 423 141 25308 0 0.4570021596 18 43 1959 3310 3996018
134	1718921 442 146 22785 0.0000001228 0.4070022536 18 43 1959 3310 3996018
137	1719363 423 141 25308 0 0.4570021596 18 36 1952 3184 3950560
138	1719786 442 146 22785 0.0000001228 0.4070022536 18 36 1952 3184 3950560
141	1720228 2688 3718 15025 0.0570000972 0.2570021596 108 2 2 216 432
154	1722916 430619 4016 582175 0.062 9.999 23108 0 0 0 0
156	2153535 95072 154149 582192 3.014 10 5057 0 0 0 0
169	2248607 69817 154149 582175 3.014 9.999 3224 1 3224 5198700 11175472100
170	2318424 67700 154149 582175 3.014 9.999 3224 224 628 1431250 652473320
171	2386124 61252 154149 582175 3.014 9.999 3224 0 0 0 0
178	2447376 10 0 0 0 0 1 0 0 0 0
179	2447386 10 0 0 0 0 1 0 0 0 0
186	2447396 422 140 22782 0 0.4070021596 18 36 1952 3184 3950560
188	2447818 439 140 22782 0 0.4070021596 18 0 8.8e-08 3.088e-07 1.946112e-14
189	2448257 280 0 257 0 0.0000007124 13 0 2 10 14
190	2448537 830 0 22784 0 0.4070022036 37 0 1 18 18
191	2449367 424 142 22783 0 0.4070021596 18 43 1959 3310 3996018
192	2449791 441 145 25310 0.0000001228 0.4570022536 18 43 1959 3310 3996018
195	2450232 424 142 22783 0 0.4070021596 18 36 1952 3184 3950560
196	2450656 441 145 25310 0.0000001228 0.4570022536 18 36 1952 3184 3950560
199	2451097 2676 644 12045 0.0070000972 0.2070021596 108 2 2 216 432
205	2453773 85 3275 516958 0.052847558425 9.052847558425 3 44 44 132 5808
208	2453858 85 3275 516958 0.052847558425 9.052847558425 3 45 45 135 6075
209	2453943 85 3278 516961 0.052847558425 9.052847558425 3 45 45 135 6075
210	2454028 25632 156760 582224 3.055 10 1390 0 0 0 0
212	2479660 26427 3281 582033 0.053 9.998 1391 0 0 0 0
219	2506087 17 3281 3281 0.053 0.053 1 1 1 1 1
231	2506104 163 0 6529 0 0.105 10 1 2 19 37
237	2506267 85 3792 517345 0.057084039294 9.057084039294 3 44 44 132 5808
240	2506352 85 3792 517345 0.057084039294 9.057084039294 3 45 45 135 6075
241	2506437 85 3795 517348 0.057084039294 9.057084039294 3 45 45 135 6075
244	2506522 37390 3799 582035 0.058 9.998 1989 0 0 0 0
251	2543912 42250 3799 582035 0.058 9.998 1989 1 1989 1979055 2624886615
263	2586162 10 0 0 0 0 1 1 1 1 1
269	2586172 85 1995 515590 0.032546852513 9.032546852513 3 44 44 132 5808
272	2586257 85 1995 515590 0.032546852513 9.032546852513 3 45 45 135 6075
273	2586342 3918 1998 581979 0.032546852513 9.997 205 0 45 243 7559
274	2590260 84809 2129 582229 0.035 10 4547 0 0 0 0
275	2675069 3828 2264 581975 0.037 9.997 202 0 0 0 0
276	2678897 81093 2003 582127 0.033 9.998 4345 0 0 0 0
295	2759990 10 0 0 0 0 1 1 1 1 1
301	2760000 85 4202 517827 0.064453871725 9.064453871725 3 44 44 132 5808
304	2760085 85 4202 517827 0.064453871725 9.064453871725 3 45 45 135 6075
305	2760170 85 4205 517830 0.064453871725 9.064453871725 3 45 45 135 6075
308	2760255 25612 4211 582198 0.065 10 1389 0 0 0 0
314	2785867 28672 4211 582198 0.065 10 1389 1 1389 965355 894240515
327	2814539 163 0 6530 0 0.105 10 1 2 19 37
333	2814702 85 2308 515902 0.037261432968 9.037261432968 3 44 44 132 5808
336	2814787 85 2308 515902 0.037261432968 9.037261432968 3 45 45 135 6075
337	2814872 85 2311 515905 0.037261432968 9.037261432968 3 45 45 135 6075
340	2814957 26535 2319 582040 0.038 9.998 1397 0 0 0 0
347	2841492 29619 2319 582040 0.038 9.998 1397 1 1397 976503 909775295
359	2871111 163 0 6531 0 0.105 10 1 2 19 37
365	2871274 85 3984 517601 0.061955560849 9.061955560849 3 44 44 132 5808
368	2871359 85 3984 517601 0.061955560849 9.061955560849 3 45 45 135 6075
369	2871444 85 3987 517604 0.061955560849 9.061955560849 3 45 45 135 6075
372	2871529 26389 3997 581982 0.062 9.997 1389 0 0 0 0
379	2897918 29449 3997 581982 0.062 9.997 1389 1 1389 965355 894240515
391	2927367 163 0 6532 0 0.105 10 1 2 19 37
397	2927530 85 1586 515117 0.025271030879 9.025271030879 3 44 44 132 5808
400	2927615 85 1586 515117 0.025271030879 9.025271030879 3 45 45 135 6075
401	2927700 123 1589 515396 0.025271030879 9.03 5 45 47 229 10493
402	2927823 76 154954 515337 3.028 9.029 4 0 0 0 0
403	2927899 36 155039 515392 3.03 9.03 2 0 0 0 0
404	2927935 157 1599 515130 0.026 9.026 9 0 0 0 0
411	2928092 119 1599 3525 0.026 0.056 7 1 7 28 140
423	2928211 163 0 6533 0 0.105 10 1 2 19 37
429	2928374 85 1486 515047 0.024352218178 9.024352218178 3 44 44 132 5808
432	2928459 85 1486 515047 0.024352218178 9.024352218178 3 45 45 135 6075
433	2928544 409 1489 515050 0.024352218178 9.024352218178 21 7 45 261 6957
434	2928953 648 1688 157694 0.027 3.068 36 0 0 0 0
435	2929601 324 1741 157719 0.029 3.069 18 0 0 0 0
436	2929925 3931 1555 582203 0.025 10 214 0 0 0 0
442	2933856 3899 515082 582203 9.025 10 196 1 196 19306 2529086
455	2937755 10 0 0 0 0 1 1 1 1 1
461	2937765 85 2895 516562 0.047532676856 9.047532676856 3 44 44 132 5808
464	2937850 85 2895 516562 0.047532676856 9.047532676856 3 45 45 135 6075
465	2937935 8677 2898 581990 0.047532676856 9.997 455 0 45 243 7797
466	2946612 23851 4188 582234 0.064 10 1279 0 0 0 0
467	2970463 8588 345051 581986 6.112 9.997 452 0 0 0 0
468	2979051 38139 2931 582045 0.048 9.998 2039 0 0 0 0
474	3017190 25152 2931 344494 0.048 6.103 1212 1 1212 735078 594188050
487	3042342 10 0 0 0 0 1 1 1 1 1
493	3042352 85 2964 516642 0.048413756283 9.048413756283 3 44 44 132 5808
496	3042437 85 2964 516642 0.048413756283 9.048413756283 3 45 45 135 6075
497	3042522 125 2967 516982 0.048413756283 9.053 5 45 47 229 10493
498	3042647 3953 1685 582118 0.027 9.998 209 0 0 0 0
499	3046600 38 156587 516978 3.053 9.053 2 0 0 0 0
500	3046638 3949 1685 582118 0.027 9.998 209 0 0 0 0
506	3050587 34 3039 3361 0.049 0.054 2 1 2 3 5
519	3050621 163 0 6534 0 0.105 10 1 2 19 37
525	3050784 85 2082 515699 0.034129833705 9.034129833705 3 44 44 132 5808
528	3050869 85 2082 515699 0.034129833705 9.034129833705 3 45 45 135 6075
529	3050954 85 2085 515702 0.034129833705 9.034129833705 3 45 45 135 6075
530	3051039 60222 1034 582166 0.014 9.999 3176 0 0 0 0
532	3111261 85484 1034 582207 0.014 10 4544 0 0 0 0
536	3196745 225 1100 3600 0.016 0.056 13 1 13 91 819
537	3196970 225 1178 3709 0.018 0.057 13 1 13 91 819
538	3197195 28781 155364 582207 3.035 10 1394 1 1394 972315 903928845
551	3225976 163 0 6535 0 0.105 10 1 2 19 37
557	3226139 85 1359 514881 0.021843716542 9.021843716542 3 44 44 132 5808
560	3226224 85 1359 514881 0.021843716542 9.021843716542 3 45 45 135 6075
561	3226309 406 1362 514884 0.021843716542 9.021843716542 20 5 45 259 7831
562	3226715 12729 1481 581800 0.024 9.994 673 0 0 0 0
563	3239444 319 1605 159502 0.026 3.096 17 0 0 0 0
564	3239763 16142 1377 581993 0.022 9.997 852 0 0 0 0
570	3255905 4008 514899 581993 9.022 9.997 196 1 196 19306 2529086
583	3259913 163 0 6536 0 0.105 10 1 2 19 37
589	3260076 84 979 514377 0.013528948517 9.013528948517 3 44 44 132 5808
592	3260160 84 979 514377 0.013528948517 9.013528948517 3 45 45 135 6075
593	3260244 183 982 514951 0.013528948517 9.023 8 3 45 235 8581
594	3260427 26560 4288 581936 0.066 9.996 1398 0 0 0 0
595	3286987 95 154316 514947 3.018 9.023 5 0 0 0 0
596	3287082 26617 997 581936 0.014 9.996 1402 0 0 0 0
603	3313699 152 997 3365 0.014 0.054 9 1 9 45 285
615	3313851 163 0 6537 0 0.105 10 1 2 19 37
621	3314014 84 882 514300 0.012270864309 9.012270864309 3 44 44 132 5808
624	3314098 84 882 514300 0.012270864309 9.012270864309 3 45 45 135 6075
625	3314182 26609 885 582000 0.012270864309 9.997 1399 0 45 178 6496
626	3340791 143521 4984 582236 0.078 10 7654 0 0 0 0
627	3484312 26524 154252 581996 3.017 9.997 1396 0 0 0 0
628	3510836 117931 957 582051 0.013 9.998 6267 0 0 0 0
634	3628767 152 957 3298 0.013 0.053 9 1 9 45 285
647	3628919 163 0 6538 0 0.105 10 1 2 19 37
653	3629082 85 2090 515706 0.034439526021 9.034439526021 3 44 44 132 5808
656	3629167 85 2090 515706 0.034439526021 9.034439526021 3 45 45 135 6075
657	3629252 262 2093 517063 0.034439526021 9.054 12 0 45 241 7553
658	3629514 142139 4925 582231 0.077 10 7545 0 0 0 0
659	3771653 171 344864 517059 6.109 9.054 9 0 0 0 0
660	3771824 153369 2113 582231 0.035 10 8155 0 0 0 0
666	3925193 12535 2113 344323 0.035 6.1 619 1 619 191890 79250570
679	3937728 163 0 6539 0 0.105 10 1 2 19 37
685	3937891 85 3205 516882 0.051566809383 9.051566809383 3 44 44 132 5808
688	3937976 85 3205 516882 0.051566809383 9.051566809383 3 45 45 135 6075
689	3938061 143 3208 517202 0.051566809383 9.056 6 45 47 276 12702
690	3938204 73761 3397 582226 0.054 10 3983 0 0 0 0
691	4011965 55 3535 517198 0.056 9.056 3 0 0 0 0
692	4012020 73706 3231 582226 0.052 10 3980 0 0 0 0
711	4085726 10 0 0 0 0 1 1 1 1 1
717	4085736 85 4861 518606 0.075361895796 9.075361895796 3 44 44 132 5808
720	4085821 85 4861 518606 0.075361895796 9.075361895796 3 45 45 135 6075
721	4085906 85 4864 518609 0.075361895796 9.075361895796 3 45 45 135 6075
724	4085991 37322 4883 581920 0.076 9.996 1985 0 0 0 0
731	4123313 42170 4883 581920 0.076 9.996 1985 1 1985 1971105 2609085985
743	4165483 10 0 0 0 0 1 1 1 1 1
749	4165493 82 3267 516951 0.05273845314 9.05273845314 3 44 44 132 5808
752	4165575 82 3267 516951 0.05273845314 9.05273845314 3 45 45 135 6075
753	4165657 7721 3270 582008 0.05273845314 9.997 405 0 45 194 6626
754	4173378 15070 156773 582238 3.055 10 805 0 0 0 0
755	4188448 7638 156906 582004 3.057 9.997 402 0 0 0 0
756	4196086 7674 3303 582056 0.053 9.998 404 0 0 0 0
763	4203760 17 3303 3303 0.053 0.053 1 1 1 1 1
775	4203777 163 0 6540 0 0.105 10 1 2 19 37
781	4203940 85 5720 519686 0.091364573385 9.091364573385 3 44 44 132 5808
784	4204025 85 5720 519686 0.091364573385 9.091364573385 3 45 45 135 6075
785	4204110 85 5723 519689 0.091364573385 9.091364573385 3 45 45 135 6075
786	4204195 251 1061 4153 0.015 0.063 15 0 0 0 0
788	4204446 37522 1061 582009 0.015 9.997 1997 0 0 0 0
795	4241968 42110 5745 582009 0.092 9.997 1982 1 1982 1965153 2597277215
807	4284078 10 0 0 0 0 1 1 1 1 1
813	4284088 84 971 514370 0.013169782835 9.013169782835 3 44 44 132 5808
816	4284172 84 971 514370 0.013169782835 9.013169782835 3 45 45 135 6075
817	4284256 84 974 514373 0.013169782835 9.013169782835 3 45 45 135 6075
818	4284340 93807 1098 582160 0.016 9.999 4992 0 0 0 0
820	4378147 81276 1005 582160 0.014 9.999 4325 0 0 0 0
826	4459423 13698 2705 580761 0.044 9.979 664 1 664 220780 97805540
839	4473121 10 0 0 0 0 1 1 1 1 1
1319	4473131 93 879 514297 0.012270864309 9.012270864309 3 7504 7504 22512 168930048
1320	4473224 93 879 514297 0.012270864309 9.012270864309 3 7504 7504 22512 168930048
1322	4473317 84 879 514297 0.012270864309 9.012270864309 3 0 0 0 0
1333	4473401 84 879 514297 0.012270864309 9.012270864309 3 0 0 0 0
1343	4473485 93 968 514367 0.013169782835 9.013169782835 3 7504 7504 22512 168930048
1344	4473578 93 968 514367 0.013169782835 9.013169782835 3 7504 7504 22512 168930048
1346	4473671 84 968 514367 0.013169782835 9.013169782835 3 0 0 0 0
1357	4473755 84 968 514367 0.013169782835 9.013169782835 3 0 0 0 0
1367	4473839 93 976 514374 0.013528948517 9.013528948517 3 7504 7504 22512 168930048
1368	4473932 93 976 514374 0.013528948517 9.013528948517 3 7504 7504 22512 168930048
1370	4474025 84 976 514374 0.013528948517 9.013528948517 3 0 0 0 0
1381	4474109 84 976 514374 0.013528948517 9.013528948517 3 0 0 0 0
1391	4474193 94 1356 514878 0.021843716542 9.021843716542 3 7504 7504 22512 168930048
1392	4474287 94 1356 514878 0.021843716542 9.021843716542 3 7504 7504 22512 168930048
1394	4474381 85 1356 514878 0.021843716542 9.021843716542 3 0 0 0 0
1405	4474466 85 1356 514878 0.021843716542 9.021843716542 3 0 0 0 0
1415	4474551 94 1483 515044 0.024352218178 9.024352218178 3 7504 7504 22512 168930048
1416	4474645 94 1483 515044 0.024352218178 9.024352218178 3 7504 7504 22512 168930048
1418	4474739 85 1483 515044 0.024352218178 9.024352218178 3 0 0 0 0
1429	4474824 85 1483 515044 0.024352218178 9.024352218178 3 0 0 0 0
1439	4474909 94 1583 515114 0.025271030879 9.025271030879 3 7504 7504 22512 168930048
1440	4475003 94 1583 515114 0.025271030879 9.025271030879 3 7504 7504 22512 168930048
1442	4475097 85 1583 515114 0.025271030879 9.025271030879 3 0 0 0 0
1453	4475182 85 1583 515114 0.025271030879 9.025271030879 3 0 0 0 0
1463	4475267 94 1992 515587 0.032546852513 9.032546852513 3 7504 7504 22512 168930048
1464	4475361 94 1992 515587 0.032546852513 9.032546852513 3 7504 7504 22512 168930048
1466	4475455 85 1992 515587 0.032546852513 9.032546852513 3 0 0 0 0
1477	4475540 85 1992 515587 0.032546852513 9.032546852513 3 0 0 0 0
1487	4475625 94 2079 515696 0.034129833705 9.034129833705 3 7504 7504 22512 168930048
1488	4475719 94 2079 515696 0.034129833705 9.034129833705 3 7504 7504 22512 168930048
1490	4475813 85 2079 515696 0.034129833705 9.034129833705 3 0 0 0 0
1501	4475898 85 2079 515696 0.034129833705 9.034129833705 3 0 0 0 0
1511	4475983 94 2087 515703 0.034439526021 9.034439526021 3 7504 7504 22512 168930048
1512	4476077 94 2087 515703 0.034439526021 9.034439526021 3 7504 7504 22512 168930048
1514	4476171 85 2087 515703 0.034439526021 9.034439526021 3 0 0 0 0
1525	4476256 85 2087 515703 0.034439526021 9.034439526021 3 0 0 0 0
1535	4476341 94 2305 515899 0.037261432968 9.037261432968 3 7504 7504 22512 168930048
1536	4476435 94 2305 515899 0.037261432968 9.037261432968 3 7504 7504 22512 168930048
1538	4476529 85 2305 515899 0.037261432968 9.037261432968 3 0 0 0 0
1549	4476614 85 2305 515899 0.037261432968 9.037261432968 3 0 0 0 0
1559	4476699 94 2892 516559 0.047532676856 9.047532676856 3 7504 7504 22512 168930048
1560	4476793 94 2892 516559 0.047532676856 9.047532676856 3 7504 7504 22512 168930048
1562	4476887 85 2892 516559 0.047532676856 9.047532676856 3 0 0 0 0
1573	4476972 85 2892 516559 0.047532676856 9.047532676856 3 0 0 0 0
1583	4477057 94 2961 516639 0.048413756283 9.048413756283 3 7504 7504 22512 168930048
1584	4477151 94 2961 516639 0.048413756283 9.048413756283 3 7504 7504 22512 168930048
1586	4477245 85 2961 516639 0.048413756283 9.048413756283 3 0 0 0 0
1597	4477330 85 2961 516639 0.048413756283 9.048413756283 3 0 0 0 0
1607	4477415 94 3202 516879 0.051566809383 9.051566809383 3 7504 7504 22512 168930048
1608	4477509 94 3202 516879 0.051566809383 9.051566809383 3 7504 7504 22512 168930048
1610	4477603 85 3202 516879 0.051566809383 9.051566809383 3 0 0 0 0
1621	4477688 85 3202 516879 0.051566809383 9.051566809383 3 0 0 0 0
1631	4477773 91 3264 516948 0.05273845314 9.05273845314 3 7504 7504 22512 168930048
1632	4477864 91 3264 516948 0.05273845314 9.05273845314 3 7504 7504 22512 168930048
1634	4477955 82 3264 516948 0.05273845314 9.05273845314 3 0 0 0 0
1645	4478037 82 3264 516948 0.05273845314 9.05273845314 3 0 0 0 0
1655	4478119 94 3272 516955 0.052847558425 9.052847558425 3 7504 7504 22512 168930048
1656	4478213 94 3272 516955 0.052847558425 9.052847558425 3 7504 7504 22512 168930048
1658	4478307 85 3272 516955 0.052847558425 9.052847558425 3 0 0 0 0
1669	4478392 85 3272 516955 0.052847558425 9.052847558425 3 0 0 0 0
1679	4478477 94 3789 517342 0.057084039294 9.057084039294 3 7504 7504 22512 168930048
1680	4478571 94 3789 517342 0.057084039294 9.057084039294 3 7504 7504 22512 168930048
1682	4478665 85 3789 517342 0.057084039294 9.057084039294 3 0 0 0 0
1693	4478750 85 3789 517342 0.057084039294 9.057084039294 3 0 0 0 0
1703	4478835 94 3981 517598 0.061955560849 9.061955560849 3 7504 7504 22512 168930048
1704	4478929 94 3981 517598 0.061955560849 9.061955560849 3 7504 7504 22512 168930048
1706	4479023 85 3981 517598 0.061955560849 9.061955560849 3 0 0 0 0
1717	4479108 85 3981 517598 0.061955560849 9.061955560849 3 0 0 0 0
1727	4479193 94 4199 517824 0.064453871725 9.064453871725 3 7504 7504 22512 168930048
1728	4479287 94 4199 517824 0.064453871725 9.064453871725 3 7504 7504 22512 168930048
1730	4479381 85 4199 517824 0.064453871725 9.064453871725 3 0 0 0 0
1741	4479466 85 4199 517824 0.064453871725 9.064453871725 3 0 0 0 0
1751	4479551 94 4858 518603 0.075361895796 9.075361895796 3 7504 7504 22512 168930048
1752	4479645 94 4858 518603 0.075361895796 9.075361895796 3 7504 7504 22512 168930048
1754	4479739 85 4858 518603 0.075361895796 9.075361895796 3 0 0 0 0
1765	4479824 85 4858 518603 0.075361895796 9.075361895796 3 0 0 0 0
1775	4479909 94 5717 519683 0.091364573385 9.091364573385 3 7504 7504 22512 168930048
1776	4480003 94 5717 519683 0.091364573385 9.091364573385 3 7504 7504 22512 168930048
1778	4480097 85 5717 519683 0.091364573385 9.091364573385 3 0 0 0 0
1789	4480182 85 5717 519683 0.091364573385 9.091364573385 3 0 0 0 0
