file 8308422 1580765683                                         
version 2
run CAIN-252-20200203-18:33:46-1274
attr configname CAIN
attr datetime 20200203-18:33:46
attr experiment CAIN
attr inifile omnetpp.ini
attr iterationvars "$0=190, $mob=\"./movements/RWPRPGM-0.0.movements\""
attr iterationvars2 "$0=190, $mob=\"./movements/RWPRPGM-0.0.movements\", $repetition=12"
attr measurement "$0=190, $mob=\"./movements/RWPRPGM-0.0.movements\""
attr mob "\"./movements/RWPRPGM-0.0.movements\""
attr network lte.simulations.networks.CAIN
attr processid 1274
attr repetition 12
attr replication #12
attr resultdir results
attr runnumber 252
attr seedset 12
param **.**.amcMode "\"AUTO\""
param **.amcMode "\"D2D\""
param **.cainNetwork true
param **.channelControl.alpha 1.0
param **.channelControl.carrierFrequency 2100e+6Hz
param **.channelControl.pMax 10W
param **.d2dCqi 7
param **.deployer.numRbDl 50
param **.deployer.numRbUl 50
param **.distThresh "${170..190 step 10}"
param **.fbDelay 1
param **.feedbackComputation "xmldoc(\"config_channel.xml\")"
param **.mobility.constraintAreaMaxX 1000m
param **.mobility.constraintAreaMaxY 1000m
param **.mobility.constraintAreaMaxZ 0m
param **.mobility.constraintAreaMinX 0m
param **.mobility.constraintAreaMinY 0m
param **.mobility.constraintAreaMinZ 0m
param **.nic.phy.channelModel "xmldoc(\"config_channel.xml\")"
param **.numBands 50
param **.pwrThresh -10
param **.qtdThresh 3
param **.rbAllocationType "\"localized\""
param **.routingRecorder.enabled false
param **.tcpApp[*].tClose -1s
param **.ueD2DTx[*].mobility.changeAngleBy "normal(0deg, 30deg)"
param **.ueD2DTx[*].mobility.changeInterval "normal(5s, 0.1s)"
param **.ueD2DTx[*].mobility.nodeId -1
param **.ueD2DTx[*].mobility.speed "normal(2mps, 0.01mps)"
param **.ueD2DTx[*].mobility.traceFile "${mob=\"./movements/RWP-0.0.movements\",\"./movements/RWP-0.5.movements\",\"./movements/RPGM-0.0.movements\",\"./movements/RPGM-0.5.movements\",\"./movements/RWPRPGM-0.0.movements\",\"./movements/RWPRPGM-0.5.movements\"}"
param **.ueD2DTx[*].mobilityType "\"BonnMotionMobility\""
param **.usePreconfiguredTxParams false
param *.eNodeB.d2dCapable false
param *.eNodeB.mobility.initFromDisplayString false
param *.eNodeB.mobility.initialX 300m
param *.eNodeB.mobility.initialY 300m
param *.eNodeB.nic.phy.enableD2DCqiReporting true
param *.eNodeB.txPower 19952.62315mw
param *.numUeCell 0
param *.numUeD2DRx 1
param *.numUeD2DTx 1
param *.ue*.macCellId 1
param *.ue*.masterId 1
param *.ue*.mobility.initFromDisplayString false
param *.ue*[0].macCellId 1
param *.ue*[0].masterId 1
param *.ue*[0].mobility.initFromDisplayString false
param *.ueD2D*.numTcpApps 1
param *.ueD2D*[*].d2dCapable true
param *.ueD2D*[0].d2dCapable false
param *.ueD2D*[0].numTcpApps 1
param *.ueD2DRx[0].mobility.initialX 310m
param *.ueD2DRx[0].mobility.initialY 350m
param *.ueD2DRx[0].tcpApp[*].localPort 1000
param *.ueD2DRx[0].tcpApp[*].typename "\"TCPSinkApp\""
param *.ueD2DTx*.tcpApp[*].connectAddress "\"ueD2DTx[0]\""
param *.ueD2DTx*.tcpApp[*].localAddress "\"ueD2DTx\""
param *.ueD2DTx*.tcpApp[*].localPort 1000
param *.ueD2DTx*.tcpApp[*].sendBytes 1GiB
param *.ueD2DTx*.tcpApp[*].typename "\"TCPSessionApp\""
param *.ueD2DTx*.tcpApp[0].active true
param *.ueD2DTx*.tcpApp[0].connectPort 1000
param *.ueD2DTx*.tcpApp[0].tOpen uniform(0.010s,0.1s)
param *.ueD2DTx*.tcpApp[0].tSend uniform(0.15s,0.5s)
param *.ueD2DTx[0].mobility.initialX 290m
param *.ueD2DTx[0].mobility.initialY 350m
param *.ueD2DTx[0].nic.d2dPeerAddresses "\"ueD2DTx[1]\""
param *.ueD2DTx[0].tcpApp[*].localPort 1000
param *.ueD2DTx[0].tcpApp[*].sendBytes 1GiB
param *.ueD2DTx[0].tcpApp[*].typename "\"TCPSessionApp\""
param *.ueD2DTx[0].tcpApp[0].active true
param *.ueD2DTx[0].tcpApp[0].connectAddress "\"ueD2DRx[0]\""
param *.ueD2DTx[0].tcpApp[0].connectPort 1000
param *.ueD2DTx[0].tcpApp[0].localAddress "\"ueD2DTx[0]\""
param *.ueD2DTx[0].tcpApp[0].tOpen uniform(0.010s,0.1s)
param *.ueD2DTx[0].tcpApp[0].tSend uniform(0.15s,0.5s)
param *.ueD2DTx[1].nic.d2dPeerAddresses "\"ueD2DTx[0]\""

vector 8  CAIN.server.ppp[0].queue  queueLength:vector  ETV
attr interpolationmode  sample-hold
attr title  "queue length, vector"
vector 9  CAIN.server.ppp[0].ppp  txState:vector  ETV
attr interpolationmode  sample-hold
attr title  "tx state, vector"
vector 24  CAIN.router.ppp[0].queue  queueLength:vector  ETV
attr interpolationmode  sample-hold
attr title  "queue length, vector"
vector 25  CAIN.router.ppp[0].ppp  txState:vector  ETV
attr interpolationmode  sample-hold
attr title  "tx state, vector"
vector 35  CAIN.router.ppp[1].queue  queueLength:vector  ETV
attr interpolationmode  sample-hold
attr title  "queue length, vector"
vector 36  CAIN.router.ppp[1].ppp  txState:vector  ETV
attr interpolationmode  sample-hold
attr title  "tx state, vector"
vector 56  CAIN.pgw.ppp[0].queue  queueLength:vector  ETV
attr interpolationmode  sample-hold
attr title  "queue length, vector"
vector 57  CAIN.pgw.ppp[0].ppp  txState:vector  ETV
attr interpolationmode  sample-hold
attr title  "tx state, vector"
vector 67  CAIN.pgw.pppInterface.queue  queueLength:vector  ETV
attr interpolationmode  sample-hold
attr title  "queue length, vector"
vector 68  CAIN.pgw.pppInterface.ppp  txState:vector  ETV
attr interpolationmode  sample-hold
attr title  "tx state, vector"
vector 104  CAIN.eNodeB.pppIf.queue  queueLength:vector  ETV
attr interpolationmode  sample-hold
attr title  "queue length, vector"
vector 105  CAIN.eNodeB.pppIf.ppp  txState:vector  ETV
attr interpolationmode  sample-hold
attr title  "tx state, vector"
vector 138  CAIN.ueD2DTx[0].nic.phy  servingCell:vector  ETV
attr source  servingCell
attr title  "ID of the serving eNodeB for the UE, vector"
attr unit  ""
vector 165  CAIN.ueD2DTx[1].nic.phy  servingCell:vector  ETV
attr source  servingCell
attr title  "ID of the serving eNodeB for the UE, vector"
attr unit  ""
vector 192  CAIN.ueD2DTx[2].nic.phy  servingCell:vector  ETV
attr source  servingCell
attr title  "ID of the serving eNodeB for the UE, vector"
attr unit  ""
vector 219  CAIN.ueD2DTx[3].nic.phy  servingCell:vector  ETV
attr source  servingCell
attr title  "ID of the serving eNodeB for the UE, vector"
attr unit  ""
vector 246  CAIN.ueD2DTx[4].nic.phy  servingCell:vector  ETV
attr source  servingCell
attr title  "ID of the serving eNodeB for the UE, vector"
attr unit  ""
vector 85  CAIN.eNodeB.nic.mac  receivedPacketFromLowerLayer:vector(packetBytes)  ETV
attr interpolationmode  none
attr source  receivedPacketFromLowerLayer
vector 264  CAIN.ueD2DTx[1].tcp  tcpRcvQueueBytes  ETV
vector 251  CAIN.ueD2DTx[1].tcp  "advertised window"  ETV
vector 250  CAIN.ueD2DTx[1].tcp  "receive window"  ETV
vector 253  CAIN.ueD2DTx[1].tcp  "sent ack"  ETV
vector 144  CAIN.ueD2DTx[1].nic.pdcpRrc  receivedPacketFromUpperLayer:vector(packetBytes)  ETV
attr interpolationmode  none
attr source  receivedPacketFromUpperLayer
vector 147  CAIN.ueD2DTx[1].nic.pdcpRrc  sentPacketToLowerLayer:vector(packetBytes)  ETV
attr interpolationmode  none
attr source  sentPacketToLowerLayer
vector 148  CAIN.ueD2DTx[1].nic.mac  receivedPacketFromUpperLayer:vector(packetBytes)  ETV
attr interpolationmode  none
attr source  receivedPacketFromUpperLayer
vector 151  CAIN.ueD2DTx[1].nic.mac  sentPacketToLowerLayer:vector(packetBytes)  ETV
attr interpolationmode  none
attr source  sentPacketToLowerLayer
vector 96  CAIN.eNodeB.nic.mac  racpkt:vector  ETV
attr interpolationmode  none
attr title  "eNB received racpkt message, vector"
vector 97  CAIN.eNodeB.nic.mac  racDistanceSignal:vector  ETV
attr interpolationmode  none
attr title  "Rac distance to enb, vector"
vector 87  CAIN.eNodeB.nic.mac  sentPacketToLowerLayer:vector(packetBytes)  ETV
attr interpolationmode  none
attr source  sentPacketToLowerLayer
vector 176  CAIN.ueD2DTx[2].nic.mac  receivedPacketFromLowerLayer:vector(packetBytes)  ETV
attr interpolationmode  none
attr source  receivedPacketFromLowerLayer
vector 187  CAIN.ueD2DTx[2].nic.mac  racpkt:vector  ETV
attr interpolationmode  none
attr title  "eNB received racpkt message, vector"
vector 188  CAIN.ueD2DTx[2].nic.mac  racDistanceSignal:vector  ETV
attr interpolationmode  none
attr title  "Rac distance to enb, vector"
vector 178  CAIN.ueD2DTx[2].nic.mac  sentPacketToLowerLayer:vector(packetBytes)  ETV
attr interpolationmode  none
attr source  sentPacketToLowerLayer
vector 149  CAIN.ueD2DTx[1].nic.mac  receivedPacketFromLowerLayer:vector(packetBytes)  ETV
attr interpolationmode  none
attr source  receivedPacketFromLowerLayer
vector 160  CAIN.ueD2DTx[1].nic.mac  racpkt:vector  ETV
attr interpolationmode  none
attr title  "eNB received racpkt message, vector"
vector 161  CAIN.ueD2DTx[1].nic.mac  racDistanceSignal:vector  ETV
attr interpolationmode  none
attr title  "Rac distance to enb, vector"
vector 230  CAIN.ueD2DTx[4].nic.mac  receivedPacketFromLowerLayer:vector(packetBytes)  ETV
attr interpolationmode  none
attr source  receivedPacketFromLowerLayer
vector 241  CAIN.ueD2DTx[4].nic.mac  racpkt:vector  ETV
attr interpolationmode  none
attr title  "eNB received racpkt message, vector"
vector 242  CAIN.ueD2DTx[4].nic.mac  racDistanceSignal:vector  ETV
attr interpolationmode  none
attr title  "Rac distance to enb, vector"
vector 232  CAIN.ueD2DTx[4].nic.mac  sentPacketToLowerLayer:vector(packetBytes)  ETV
attr interpolationmode  none
attr source  sentPacketToLowerLayer
vector 122  CAIN.ueD2DTx[0].nic.mac  receivedPacketFromLowerLayer:vector(packetBytes)  ETV
attr interpolationmode  none
attr source  receivedPacketFromLowerLayer
vector 133  CAIN.ueD2DTx[0].nic.mac  racpkt:vector  ETV
attr interpolationmode  none
attr title  "eNB received racpkt message, vector"
vector 134  CAIN.ueD2DTx[0].nic.mac  racDistanceSignal:vector  ETV
attr interpolationmode  none
attr title  "Rac distance to enb, vector"
vector 124  CAIN.ueD2DTx[0].nic.mac  sentPacketToLowerLayer:vector(packetBytes)  ETV
attr interpolationmode  none
attr source  sentPacketToLowerLayer
vector 203  CAIN.ueD2DTx[3].nic.mac  receivedPacketFromLowerLayer:vector(packetBytes)  ETV
attr interpolationmode  none
attr source  receivedPacketFromLowerLayer
vector 214  CAIN.ueD2DTx[3].nic.mac  racpkt:vector  ETV
attr interpolationmode  none
attr title  "eNB received racpkt message, vector"
vector 215  CAIN.ueD2DTx[3].nic.mac  racDistanceSignal:vector  ETV
attr interpolationmode  none
attr title  "Rac distance to enb, vector"
vector 205  CAIN.ueD2DTx[3].nic.mac  sentPacketToLowerLayer:vector(packetBytes)  ETV
attr interpolationmode  none
attr source  sentPacketToLowerLayer
vector 93  CAIN.eNodeB.nic.mac  ServedDevs:vector  ETV
attr interpolationmode  none
attr title  "# of devices served on cain forwarding, vector"
vector 91  CAIN.eNodeB.nic.mac  DistanceSignal:vector  ETV
attr interpolationmode  none
attr title  "Distance to enb, vector"
vector 89  CAIN.eNodeB.nic.mac  CainMessage:vector  ETV
attr interpolationmode  none
attr title  "eNB received CAIN message, vector"
vector 92  CAIN.eNodeB.nic.mac  HopDistanceSignal:vector  ETV
attr interpolationmode  none
attr title  "Distance to enb with hop forwarding, vector"
vector 90  CAIN.eNodeB.nic.mac  CainHopMessage:vector  ETV
attr interpolationmode  none
attr title  "eNB received CAIN hop message, vector"
vector 288  CAIN.ueD2DTx[3].tcp  tcpRcvQueueBytes  ETV
vector 275  CAIN.ueD2DTx[3].tcp  "advertised window"  ETV
vector 274  CAIN.ueD2DTx[3].tcp  "receive window"  ETV
vector 277  CAIN.ueD2DTx[3].tcp  "sent ack"  ETV
vector 198  CAIN.ueD2DTx[3].nic.pdcpRrc  receivedPacketFromUpperLayer:vector(packetBytes)  ETV
attr interpolationmode  none
attr source  receivedPacketFromUpperLayer
vector 201  CAIN.ueD2DTx[3].nic.pdcpRrc  sentPacketToLowerLayer:vector(packetBytes)  ETV
attr interpolationmode  none
attr source  sentPacketToLowerLayer
vector 202  CAIN.ueD2DTx[3].nic.mac  receivedPacketFromUpperLayer:vector(packetBytes)  ETV
attr interpolationmode  none
attr source  receivedPacketFromUpperLayer
vector 312  CAIN.ueD2DTx[4].tcp  tcpRcvQueueBytes  ETV
vector 299  CAIN.ueD2DTx[4].tcp  "advertised window"  ETV
vector 298  CAIN.ueD2DTx[4].tcp  "receive window"  ETV
vector 301  CAIN.ueD2DTx[4].tcp  "sent ack"  ETV
vector 225  CAIN.ueD2DTx[4].nic.pdcpRrc  receivedPacketFromUpperLayer:vector(packetBytes)  ETV
attr interpolationmode  none
attr source  receivedPacketFromUpperLayer
vector 228  CAIN.ueD2DTx[4].nic.pdcpRrc  sentPacketToLowerLayer:vector(packetBytes)  ETV
attr interpolationmode  none
attr source  sentPacketToLowerLayer
vector 229  CAIN.ueD2DTx[4].nic.mac  receivedPacketFromUpperLayer:vector(packetBytes)  ETV
attr interpolationmode  none
attr source  receivedPacketFromUpperLayer
vector 204  CAIN.ueD2DTx[3].nic.mac  sentPacketToUpperLayer:vector(packetBytes)  ETV
attr interpolationmode  none
attr source  sentPacketToUpperLayer
vector 231  CAIN.ueD2DTx[4].nic.mac  sentPacketToUpperLayer:vector(packetBytes)  ETV
attr interpolationmode  none
attr source  sentPacketToUpperLayer
vector 99  CAIN.eNodeB.nic.phy  averageCqiUlvect:vector  ETV
attr source  averageCqiUlvect
attr title  "Average Cqi reported in UL, vector"
attr unit  cqi
vector 86  CAIN.eNodeB.nic.mac  sentPacketToUpperLayer:vector(packetBytes)  ETV
attr interpolationmode  none
attr source  sentPacketToUpperLayer
vector 81  CAIN.eNodeB.nic.pdcpRrc  receivedPacketFromLowerLayer:vector(packetBytes)  ETV
attr interpolationmode  none
attr source  receivedPacketFromLowerLayer
vector 82  CAIN.eNodeB.nic.pdcpRrc  sentPacketToUpperLayer:vector(packetBytes)  ETV
attr interpolationmode  none
attr source  sentPacketToUpperLayer
vector 80  CAIN.eNodeB.nic.pdcpRrc  receivedPacketFromUpperLayer:vector(packetBytes)  ETV
attr interpolationmode  none
attr source  receivedPacketFromUpperLayer
vector 83  CAIN.eNodeB.nic.pdcpRrc  sentPacketToLowerLayer:vector(packetBytes)  ETV
attr interpolationmode  none
attr source  sentPacketToLowerLayer
vector 84  CAIN.eNodeB.nic.mac  receivedPacketFromUpperLayer:vector(packetBytes)  ETV
attr interpolationmode  none
attr source  receivedPacketFromUpperLayer
vector 88  CAIN.eNodeB.nic.mac  measuredItbs:vector  ETV
attr source  measuredItbs
attr title  "TBS index, vector"
attr unit  ""
vector 135  CAIN.ueD2DTx[0].nic.phy  averageCqiDlvect:vector  ETV
attr source  averageCqiDlvect
attr title  "Average Cqi reported in DL, vector"
attr unit  cqi
vector 123  CAIN.ueD2DTx[0].nic.mac  sentPacketToUpperLayer:vector(packetBytes)  ETV
attr interpolationmode  none
attr source  sentPacketToUpperLayer
vector 118  CAIN.ueD2DTx[0].nic.pdcpRrc  receivedPacketFromLowerLayer:vector(packetBytes)  ETV
attr interpolationmode  none
attr source  receivedPacketFromLowerLayer
vector 119  CAIN.ueD2DTx[0].nic.pdcpRrc  sentPacketToUpperLayer:vector(packetBytes)  ETV
attr interpolationmode  none
attr source  sentPacketToUpperLayer
vector 336  CAIN.ueD2DTx[0].tcp  tcpRcvQueueBytes  ETV
vector 323  CAIN.ueD2DTx[0].tcp  "advertised window"  ETV
vector 322  CAIN.ueD2DTx[0].tcp  "receive window"  ETV
vector 325  CAIN.ueD2DTx[0].tcp  "sent ack"  ETV
vector 117  CAIN.ueD2DTx[0].nic.pdcpRrc  receivedPacketFromUpperLayer:vector(packetBytes)  ETV
attr interpolationmode  none
attr source  receivedPacketFromUpperLayer
vector 120  CAIN.ueD2DTx[0].nic.pdcpRrc  sentPacketToLowerLayer:vector(packetBytes)  ETV
attr interpolationmode  none
attr source  sentPacketToLowerLayer
vector 121  CAIN.ueD2DTx[0].nic.mac  receivedPacketFromUpperLayer:vector(packetBytes)  ETV
attr interpolationmode  none
attr source  receivedPacketFromUpperLayer
vector 360  CAIN.ueD2DTx[2].tcp  tcpRcvQueueBytes  ETV
vector 347  CAIN.ueD2DTx[2].tcp  "advertised window"  ETV
vector 346  CAIN.ueD2DTx[2].tcp  "receive window"  ETV
vector 349  CAIN.ueD2DTx[2].tcp  "sent ack"  ETV
vector 171  CAIN.ueD2DTx[2].nic.pdcpRrc  receivedPacketFromUpperLayer:vector(packetBytes)  ETV
attr interpolationmode  none
attr source  receivedPacketFromUpperLayer
vector 174  CAIN.ueD2DTx[2].nic.pdcpRrc  sentPacketToLowerLayer:vector(packetBytes)  ETV
attr interpolationmode  none
attr source  sentPacketToLowerLayer
vector 175  CAIN.ueD2DTx[2].nic.mac  receivedPacketFromUpperLayer:vector(packetBytes)  ETV
attr interpolationmode  none
attr source  receivedPacketFromUpperLayer
vector 177  CAIN.ueD2DTx[2].nic.mac  sentPacketToUpperLayer:vector(packetBytes)  ETV
attr interpolationmode  none
attr source  sentPacketToUpperLayer
vector 162  CAIN.ueD2DTx[1].nic.phy  averageCqiDlvect:vector  ETV
attr source  averageCqiDlvect
attr title  "Average Cqi reported in DL, vector"
attr unit  cqi
vector 150  CAIN.ueD2DTx[1].nic.mac  sentPacketToUpperLayer:vector(packetBytes)  ETV
attr interpolationmode  none
attr source  sentPacketToUpperLayer
vector 145  CAIN.ueD2DTx[1].nic.pdcpRrc  receivedPacketFromLowerLayer:vector(packetBytes)  ETV
attr interpolationmode  none
attr source  receivedPacketFromLowerLayer
vector 146  CAIN.ueD2DTx[1].nic.pdcpRrc  sentPacketToUpperLayer:vector(packetBytes)  ETV
attr interpolationmode  none
attr source  sentPacketToUpperLayer
8	16891 8 0 0 0 0 1 0 0 0 0
9	16899 8 0 0 0 0 1 0 0 0 0
24	16907 9 0 0 0 0 1 0 0 0 0
25	16916 9 0 0 0 0 1 0 0 0 0
35	16925 9 0 0 0 0 1 0 0 0 0
36	16934 9 0 0 0 0 1 0 0 0 0
56	16943 9 0 0 0 0 1 0 0 0 0
57	16952 9 0 0 0 0 1 0 0 0 0
67	16961 9 0 0 0 0 1 0 0 0 0
68	16970 9 0 0 0 0 1 0 0 0 0
80	16979 165 1037 359661 0.046 9.101 9 44 44 396 17424
81	17144 165 1027 359656 0.046 9.101 9 45 45 405 18225
82	17309 165 1027 359656 0.046 9.101 9 44 44 396 17424
83	17474 165 1037 359661 0.046 9.101 9 45 45 405 18225
84	17639 330 1043 359706 0.046 9.102 18 45 47 828 38106
85	17969 498080 60 395192 0.002 10 28278 0 0 0 0
86	516049 321 1020 359701 0.046 9.102 18 0 47 423 19881
87	516370 353645 286 395116 0.023 9.999 19956 0 0 0 0
88	870015 220 1064 359701 0.047 9.102 12 26 26 312 8112
89	870235 333806 390 395192 0.027 10 15929 1 15929 126874485 1347364739205
90	1204041 248394 434 395154 0.029 9.999 11946 1 11946 71359431 568330294961
91	1452435 77446 390 395192 0.027 10 3983 215 215 856345 184114175
92	1529881 235608 434 395154 0.029 9.999 11946 162 253 2377254 491287214
93	1765489 69480 390 395192 0.027 10 3983 1 1 3983 3983
96	1834969 335064 286 395154 0.023 9.999 15936 1 15936 126986016 1349141762656
97	2170033 302349 286 395154 0.023 9.999 15936 78 253 1723677 230984715
99	2472382 273 898 359837 0.043 9.107 15 13 15 219 3207
104	2472655 10 0 0 0 0 1 0 0 0 0
105	2472665 10 0 0 0 0 1 0 0 0 0
117	2472675 85 1811 358538 0.074202873551 9.074202873551 3 44 44 132 5808
118	2472760 116 1195 357613 0.051 9.052 6 45 45 270 12150
119	2472876 116 1195 357613 0.051 9.052 6 44 44 264 11616
120	2472992 85 1811 358538 0.074202873551 9.074202873551 3 45 45 135 6075
121	2473077 85 1814 358541 0.074202873551 9.074202873551 3 45 45 135 6075
122	2473162 111972 364 395141 0.026 9.999 5980 0 0 0 0
123	2585134 116 1191 357609 0.051 9.052 6 47 47 282 13254
124	2585250 110822 364 395161 0.026 10 5978 0 0 0 0
133	2696072 85480 364 395141 0.026 9.999 3986 1 3986 7946091 21118061181
134	2781552 82595 364 395141 0.026 9.999 3986 0 215 856345 184114175
135	2864147 116 1115 357490 0.048 9.049 6 15 15 90 1350
138	2864263 10 0 0 0 0 1 1 1 1 1
144	2864273 84 266 356194 0.021793187852 9.021793187852 3 44 44 132 5808
145	2864357 58 3058 359810 0.106 9.106 3 45 45 135 6075
146	2864415 58 3058 359810 0.106 9.106 3 44 44 132 5808
147	2864473 84 266 356194 0.021793187852 9.021793187852 3 45 45 135 6075
148	2864557 84 269 356197 0.021793187852 9.021793187852 3 45 45 135 6075
149	2864641 550695 329 395189 0.025 10 29890 0 0 0 0
150	3415336 58 3054 359806 0.106 9.106 3 47 47 141 6627
151	3415394 551756 272 395189 0.022 10 29887 0 0 0 0
160	3967150 614788 331 395189 0.025 10 27888 1 27888 388884216 7230264971944
161	4581938 554176 331 395189 0.025 10 27888 0 253 3620859 588365215
162	5136114 58 3001 359753 0.103 9.103 3 15 15 45 675
165	5136172 10 0 0 0 0 1 1 1 1 1
171	5136182 85 2502 359254 0.092235521143 9.092235521143 3 44 44 132 5808
174	5136267 85 2502 359254 0.092235521143 9.092235521143 3 45 45 135 6075
175	5136352 143 2505 359454 0.092235521143 9.097 6 45 47 276 12702
176	5136495 596691 305 395147 0.024 9.999 31871 0 0 0 0
177	5733186 55 2698 359450 0.097 9.097 3 0 0 0 0
178	5733241 596691 305 395147 0.024 9.999 31871 0 0 0 0
187	6329932 712935 305 395147 0.024 9.999 31865 1 31865 507705045 10785516740965
188	7042867 628439 305 395147 0.024 9.999 31865 0 215 3424735 736318025
192	7671306 10 0 0 0 0 1 1 1 1 1
198	7671316 84 641 356832 0.037594538601 9.037594538601 3 44 44 132 5808
201	7671400 84 641 356832 0.037594538601 9.037594538601 3 45 45 135 6075
202	7671484 141 644 357079 0.037594538601 9.042 6 45 47 276 12702
203	7671625 74683 367 395144 0.026 9.999 3989 0 0 0 0
204	7746308 54 830 357075 0.042 9.042 3 0 0 0 0
205	7746362 74682 367 395144 0.026 9.999 3989 0 0 0 0
214	7821044 85416 367 395144 0.026 9.999 3983 1 3983 7934136 21070420504
215	7906460 82540 367 395144 0.026 9.999 3983 215 215 856345 184114175
219	7989000 10 0 0 0 0 1 1 1 1 1
225	7989010 84 649 356839 0.037865909024 9.037865909024 3 44 44 132 5808
228	7989094 84 649 356839 0.037865909024 9.037865909024 3 45 45 135 6075
229	7989178 141 652 357084 0.037865909024 9.042 6 45 47 276 12702
230	7989319 74683 361 395138 0.026 9.999 3989 0 0 0 0
231	8064002 54 835 357080 0.042 9.042 3 0 0 0 0
232	8064056 74682 361 395138 0.026 9.999 3989 0 0 0 0
241	8138738 85416 361 395138 0.026 9.999 3983 1 3983 7934136 21070420504
242	8224154 82540 361 395138 0.026 9.999 3983 215 215 856345 184114175
246	8306694 10 0 0 0 0 1 1 1 1 1
250	8306704 90 263 356191 0.021793187852 9.021793187852 3 7504 7504 22512 168930048
251	8306794 90 263 356191 0.021793187852 9.021793187852 3 7504 7504 22512 168930048
253	8306884 81 263 356191 0.021793187852 9.021793187852 3 0 0 0 0
264	8306965 81 263 356191 0.021793187852 9.021793187852 3 0 0 0 0
274	8307046 90 638 356829 0.037594538601 9.037594538601 3 7504 7504 22512 168930048
275	8307136 90 638 356829 0.037594538601 9.037594538601 3 7504 7504 22512 168930048
277	8307226 81 638 356829 0.037594538601 9.037594538601 3 0 0 0 0
288	8307307 81 638 356829 0.037594538601 9.037594538601 3 0 0 0 0
298	8307388 90 646 356836 0.037865909024 9.037865909024 3 7504 7504 22512 168930048
299	8307478 90 646 356836 0.037865909024 9.037865909024 3 7504 7504 22512 168930048
301	8307568 81 646 356836 0.037865909024 9.037865909024 3 0 0 0 0
312	8307649 81 646 356836 0.037865909024 9.037865909024 3 0 0 0 0
322	8307730 91 1808 358535 0.074202873551 9.074202873551 3 7504 7504 22512 168930048
323	8307821 91 1808 358535 0.074202873551 9.074202873551 3 7504 7504 22512 168930048
325	8307912 82 1808 358535 0.074202873551 9.074202873551 3 0 0 0 0
336	8307994 82 1808 358535 0.074202873551 9.074202873551 3 0 0 0 0
346	8308076 91 2499 359251 0.092235521143 9.092235521143 3 7504 7504 22512 168930048
347	8308167 91 2499 359251 0.092235521143 9.092235521143 3 7504 7504 22512 168930048
349	8308258 82 2499 359251 0.092235521143 9.092235521143 3 0 0 0 0
360	8308340 82 2499 359251 0.092235521143 9.092235521143 3 0 0 0 0
