file 4632271 1580763254                                         
version 2
run CAIN-26-20200203-17:53:17-31373
attr configname CAIN
attr datetime 20200203-17:53:17
attr experiment CAIN
attr inifile omnetpp.ini
attr iterationvars "$0=170, $mob=\"./movements/RWP-0.5.movements\""
attr iterationvars2 "$0=170, $mob=\"./movements/RWP-0.5.movements\", $repetition=11"
attr measurement "$0=170, $mob=\"./movements/RWP-0.5.movements\""
attr mob "\"./movements/RWP-0.5.movements\""
attr network lte.simulations.networks.CAIN
attr processid 31373
attr repetition 11
attr replication #11
attr resultdir results
attr runnumber 26
attr seedset 11
param **.**.amcMode "\"AUTO\""
param **.amcMode "\"D2D\""
param **.cainNetwork true
param **.channelControl.alpha 1.0
param **.channelControl.carrierFrequency 2100e+6Hz
param **.channelControl.pMax 10W
param **.d2dCqi 7
param **.deployer.numRbDl 50
param **.deployer.numRbUl 50
param **.distThresh "${170..190 step 10}"
param **.fbDelay 1
param **.feedbackComputation "xmldoc(\"config_channel.xml\")"
param **.mobility.constraintAreaMaxX 1000m
param **.mobility.constraintAreaMaxY 1000m
param **.mobility.constraintAreaMaxZ 0m
param **.mobility.constraintAreaMinX 0m
param **.mobility.constraintAreaMinY 0m
param **.mobility.constraintAreaMinZ 0m
param **.nic.phy.channelModel "xmldoc(\"config_channel.xml\")"
param **.numBands 50
param **.pwrThresh -10
param **.qtdThresh 3
param **.rbAllocationType "\"localized\""
param **.routingRecorder.enabled false
param **.tcpApp[*].tClose -1s
param **.ueD2DTx[*].mobility.changeAngleBy "normal(0deg, 30deg)"
param **.ueD2DTx[*].mobility.changeInterval "normal(5s, 0.1s)"
param **.ueD2DTx[*].mobility.nodeId -1
param **.ueD2DTx[*].mobility.speed "normal(2mps, 0.01mps)"
param **.ueD2DTx[*].mobility.traceFile "${mob=\"./movements/RWP-0.0.movements\",\"./movements/RWP-0.5.movements\",\"./movements/RPGM-0.0.movements\",\"./movements/RPGM-0.5.movements\",\"./movements/RWPRPGM-0.0.movements\",\"./movements/RWPRPGM-0.5.movements\"}"
param **.ueD2DTx[*].mobilityType "\"BonnMotionMobility\""
param **.usePreconfiguredTxParams false
param *.eNodeB.d2dCapable false
param *.eNodeB.mobility.initFromDisplayString false
param *.eNodeB.mobility.initialX 300m
param *.eNodeB.mobility.initialY 300m
param *.eNodeB.nic.phy.enableD2DCqiReporting true
param *.eNodeB.txPower 19952.62315mw
param *.numUeCell 0
param *.numUeD2DRx 1
param *.numUeD2DTx 1
param *.ue*.macCellId 1
param *.ue*.masterId 1
param *.ue*.mobility.initFromDisplayString false
param *.ue*[0].macCellId 1
param *.ue*[0].masterId 1
param *.ue*[0].mobility.initFromDisplayString false
param *.ueD2D*.numTcpApps 1
param *.ueD2D*[*].d2dCapable true
param *.ueD2D*[0].d2dCapable false
param *.ueD2D*[0].numTcpApps 1
param *.ueD2DRx[0].mobility.initialX 310m
param *.ueD2DRx[0].mobility.initialY 350m
param *.ueD2DRx[0].tcpApp[*].localPort 1000
param *.ueD2DRx[0].tcpApp[*].typename "\"TCPSinkApp\""
param *.ueD2DTx*.tcpApp[*].connectAddress "\"ueD2DTx[0]\""
param *.ueD2DTx*.tcpApp[*].localAddress "\"ueD2DTx\""
param *.ueD2DTx*.tcpApp[*].localPort 1000
param *.ueD2DTx*.tcpApp[*].sendBytes 1GiB
param *.ueD2DTx*.tcpApp[*].typename "\"TCPSessionApp\""
param *.ueD2DTx*.tcpApp[0].active true
param *.ueD2DTx*.tcpApp[0].connectPort 1000
param *.ueD2DTx*.tcpApp[0].tOpen uniform(0.010s,0.1s)
param *.ueD2DTx*.tcpApp[0].tSend uniform(0.15s,0.5s)
param *.ueD2DTx[0].mobility.initialX 290m
param *.ueD2DTx[0].mobility.initialY 350m
param *.ueD2DTx[0].nic.d2dPeerAddresses "\"ueD2DTx[1]\""
param *.ueD2DTx[0].tcpApp[*].localPort 1000
param *.ueD2DTx[0].tcpApp[*].sendBytes 1GiB
param *.ueD2DTx[0].tcpApp[*].typename "\"TCPSessionApp\""
param *.ueD2DTx[0].tcpApp[0].active true
param *.ueD2DTx[0].tcpApp[0].connectAddress "\"ueD2DRx[0]\""
param *.ueD2DTx[0].tcpApp[0].connectPort 1000
param *.ueD2DTx[0].tcpApp[0].localAddress "\"ueD2DTx[0]\""
param *.ueD2DTx[0].tcpApp[0].tOpen uniform(0.010s,0.1s)
param *.ueD2DTx[0].tcpApp[0].tSend uniform(0.15s,0.5s)
param *.ueD2DTx[1].nic.d2dPeerAddresses "\"ueD2DTx[0]\""

vector 8  CAIN.server.ppp[0].queue  queueLength:vector  ETV
attr interpolationmode  sample-hold
attr title  "queue length, vector"
vector 9  CAIN.server.ppp[0].ppp  txState:vector  ETV
attr interpolationmode  sample-hold
attr title  "tx state, vector"
vector 24  CAIN.router.ppp[0].queue  queueLength:vector  ETV
attr interpolationmode  sample-hold
attr title  "queue length, vector"
vector 25  CAIN.router.ppp[0].ppp  txState:vector  ETV
attr interpolationmode  sample-hold
attr title  "tx state, vector"
vector 35  CAIN.router.ppp[1].queue  queueLength:vector  ETV
attr interpolationmode  sample-hold
attr title  "queue length, vector"
vector 36  CAIN.router.ppp[1].ppp  txState:vector  ETV
attr interpolationmode  sample-hold
attr title  "tx state, vector"
vector 56  CAIN.pgw.ppp[0].queue  queueLength:vector  ETV
attr interpolationmode  sample-hold
attr title  "queue length, vector"
vector 57  CAIN.pgw.ppp[0].ppp  txState:vector  ETV
attr interpolationmode  sample-hold
attr title  "tx state, vector"
vector 67  CAIN.pgw.pppInterface.queue  queueLength:vector  ETV
attr interpolationmode  sample-hold
attr title  "queue length, vector"
vector 68  CAIN.pgw.pppInterface.ppp  txState:vector  ETV
attr interpolationmode  sample-hold
attr title  "tx state, vector"
vector 104  CAIN.eNodeB.pppIf.queue  queueLength:vector  ETV
attr interpolationmode  sample-hold
attr title  "queue length, vector"
vector 105  CAIN.eNodeB.pppIf.ppp  txState:vector  ETV
attr interpolationmode  sample-hold
attr title  "tx state, vector"
vector 138  CAIN.ueD2DTx[0].nic.phy  servingCell:vector  ETV
attr source  servingCell
attr title  "ID of the serving eNodeB for the UE, vector"
attr unit  ""
vector 165  CAIN.ueD2DTx[1].nic.phy  servingCell:vector  ETV
attr source  servingCell
attr title  "ID of the serving eNodeB for the UE, vector"
attr unit  ""
vector 192  CAIN.ueD2DTx[2].nic.phy  servingCell:vector  ETV
attr source  servingCell
attr title  "ID of the serving eNodeB for the UE, vector"
attr unit  ""
vector 219  CAIN.ueD2DTx[3].nic.phy  servingCell:vector  ETV
attr source  servingCell
attr title  "ID of the serving eNodeB for the UE, vector"
attr unit  ""
vector 246  CAIN.ueD2DTx[4].nic.phy  servingCell:vector  ETV
attr source  servingCell
attr title  "ID of the serving eNodeB for the UE, vector"
attr unit  ""
vector 85  CAIN.eNodeB.nic.mac  receivedPacketFromLowerLayer:vector(packetBytes)  ETV
attr interpolationmode  none
attr source  receivedPacketFromLowerLayer
vector 264  CAIN.ueD2DTx[1].tcp  tcpRcvQueueBytes  ETV
vector 251  CAIN.ueD2DTx[1].tcp  "advertised window"  ETV
vector 250  CAIN.ueD2DTx[1].tcp  "receive window"  ETV
vector 253  CAIN.ueD2DTx[1].tcp  "sent ack"  ETV
vector 144  CAIN.ueD2DTx[1].nic.pdcpRrc  receivedPacketFromUpperLayer:vector(packetBytes)  ETV
attr interpolationmode  none
attr source  receivedPacketFromUpperLayer
vector 147  CAIN.ueD2DTx[1].nic.pdcpRrc  sentPacketToLowerLayer:vector(packetBytes)  ETV
attr interpolationmode  none
attr source  sentPacketToLowerLayer
vector 148  CAIN.ueD2DTx[1].nic.mac  receivedPacketFromUpperLayer:vector(packetBytes)  ETV
attr interpolationmode  none
attr source  receivedPacketFromUpperLayer
vector 151  CAIN.ueD2DTx[1].nic.mac  sentPacketToLowerLayer:vector(packetBytes)  ETV
attr interpolationmode  none
attr source  sentPacketToLowerLayer
vector 96  CAIN.eNodeB.nic.mac  racpkt:vector  ETV
attr interpolationmode  none
attr title  "eNB received racpkt message, vector"
vector 97  CAIN.eNodeB.nic.mac  racDistanceSignal:vector  ETV
attr interpolationmode  none
attr title  "Rac distance to enb, vector"
vector 87  CAIN.eNodeB.nic.mac  sentPacketToLowerLayer:vector(packetBytes)  ETV
attr interpolationmode  none
attr source  sentPacketToLowerLayer
vector 122  CAIN.ueD2DTx[0].nic.mac  receivedPacketFromLowerLayer:vector(packetBytes)  ETV
attr interpolationmode  none
attr source  receivedPacketFromLowerLayer
vector 133  CAIN.ueD2DTx[0].nic.mac  racpkt:vector  ETV
attr interpolationmode  none
attr title  "eNB received racpkt message, vector"
vector 134  CAIN.ueD2DTx[0].nic.mac  racDistanceSignal:vector  ETV
attr interpolationmode  none
attr title  "Rac distance to enb, vector"
vector 124  CAIN.ueD2DTx[0].nic.mac  sentPacketToLowerLayer:vector(packetBytes)  ETV
attr interpolationmode  none
attr source  sentPacketToLowerLayer
vector 203  CAIN.ueD2DTx[3].nic.mac  receivedPacketFromLowerLayer:vector(packetBytes)  ETV
attr interpolationmode  none
attr source  receivedPacketFromLowerLayer
vector 214  CAIN.ueD2DTx[3].nic.mac  racpkt:vector  ETV
attr interpolationmode  none
attr title  "eNB received racpkt message, vector"
vector 215  CAIN.ueD2DTx[3].nic.mac  racDistanceSignal:vector  ETV
attr interpolationmode  none
attr title  "Rac distance to enb, vector"
vector 205  CAIN.ueD2DTx[3].nic.mac  sentPacketToLowerLayer:vector(packetBytes)  ETV
attr interpolationmode  none
attr source  sentPacketToLowerLayer
vector 149  CAIN.ueD2DTx[1].nic.mac  receivedPacketFromLowerLayer:vector(packetBytes)  ETV
attr interpolationmode  none
attr source  receivedPacketFromLowerLayer
vector 230  CAIN.ueD2DTx[4].nic.mac  receivedPacketFromLowerLayer:vector(packetBytes)  ETV
attr interpolationmode  none
attr source  receivedPacketFromLowerLayer
vector 241  CAIN.ueD2DTx[4].nic.mac  racpkt:vector  ETV
attr interpolationmode  none
attr title  "eNB received racpkt message, vector"
vector 242  CAIN.ueD2DTx[4].nic.mac  racDistanceSignal:vector  ETV
attr interpolationmode  none
attr title  "Rac distance to enb, vector"
vector 232  CAIN.ueD2DTx[4].nic.mac  sentPacketToLowerLayer:vector(packetBytes)  ETV
attr interpolationmode  none
attr source  sentPacketToLowerLayer
vector 160  CAIN.ueD2DTx[1].nic.mac  racpkt:vector  ETV
attr interpolationmode  none
attr title  "eNB received racpkt message, vector"
vector 161  CAIN.ueD2DTx[1].nic.mac  racDistanceSignal:vector  ETV
attr interpolationmode  none
attr title  "Rac distance to enb, vector"
vector 176  CAIN.ueD2DTx[2].nic.mac  receivedPacketFromLowerLayer:vector(packetBytes)  ETV
attr interpolationmode  none
attr source  receivedPacketFromLowerLayer
vector 187  CAIN.ueD2DTx[2].nic.mac  racpkt:vector  ETV
attr interpolationmode  none
attr title  "eNB received racpkt message, vector"
vector 188  CAIN.ueD2DTx[2].nic.mac  racDistanceSignal:vector  ETV
attr interpolationmode  none
attr title  "Rac distance to enb, vector"
vector 178  CAIN.ueD2DTx[2].nic.mac  sentPacketToLowerLayer:vector(packetBytes)  ETV
attr interpolationmode  none
attr source  sentPacketToLowerLayer
vector 93  CAIN.eNodeB.nic.mac  ServedDevs:vector  ETV
attr interpolationmode  none
attr title  "# of devices served on cain forwarding, vector"
vector 91  CAIN.eNodeB.nic.mac  DistanceSignal:vector  ETV
attr interpolationmode  none
attr title  "Distance to enb, vector"
vector 89  CAIN.eNodeB.nic.mac  CainMessage:vector  ETV
attr interpolationmode  none
attr title  "eNB received CAIN message, vector"
vector 92  CAIN.eNodeB.nic.mac  HopDistanceSignal:vector  ETV
attr interpolationmode  none
attr title  "Distance to enb with hop forwarding, vector"
vector 90  CAIN.eNodeB.nic.mac  CainHopMessage:vector  ETV
attr interpolationmode  none
attr title  "eNB received CAIN hop message, vector"
vector 288  CAIN.ueD2DTx[0].tcp  tcpRcvQueueBytes  ETV
vector 275  CAIN.ueD2DTx[0].tcp  "advertised window"  ETV
vector 274  CAIN.ueD2DTx[0].tcp  "receive window"  ETV
vector 277  CAIN.ueD2DTx[0].tcp  "sent ack"  ETV
vector 117  CAIN.ueD2DTx[0].nic.pdcpRrc  receivedPacketFromUpperLayer:vector(packetBytes)  ETV
attr interpolationmode  none
attr source  receivedPacketFromUpperLayer
vector 120  CAIN.ueD2DTx[0].nic.pdcpRrc  sentPacketToLowerLayer:vector(packetBytes)  ETV
attr interpolationmode  none
attr source  sentPacketToLowerLayer
vector 121  CAIN.ueD2DTx[0].nic.mac  receivedPacketFromUpperLayer:vector(packetBytes)  ETV
attr interpolationmode  none
attr source  receivedPacketFromUpperLayer
vector 123  CAIN.ueD2DTx[0].nic.mac  sentPacketToUpperLayer:vector(packetBytes)  ETV
attr interpolationmode  none
attr source  sentPacketToUpperLayer
vector 99  CAIN.eNodeB.nic.phy  averageCqiUlvect:vector  ETV
attr source  averageCqiUlvect
attr title  "Average Cqi reported in UL, vector"
attr unit  cqi
vector 86  CAIN.eNodeB.nic.mac  sentPacketToUpperLayer:vector(packetBytes)  ETV
attr interpolationmode  none
attr source  sentPacketToUpperLayer
vector 81  CAIN.eNodeB.nic.pdcpRrc  receivedPacketFromLowerLayer:vector(packetBytes)  ETV
attr interpolationmode  none
attr source  receivedPacketFromLowerLayer
vector 82  CAIN.eNodeB.nic.pdcpRrc  sentPacketToUpperLayer:vector(packetBytes)  ETV
attr interpolationmode  none
attr source  sentPacketToUpperLayer
vector 80  CAIN.eNodeB.nic.pdcpRrc  receivedPacketFromUpperLayer:vector(packetBytes)  ETV
attr interpolationmode  none
attr source  receivedPacketFromUpperLayer
vector 83  CAIN.eNodeB.nic.pdcpRrc  sentPacketToLowerLayer:vector(packetBytes)  ETV
attr interpolationmode  none
attr source  sentPacketToLowerLayer
vector 84  CAIN.eNodeB.nic.mac  receivedPacketFromUpperLayer:vector(packetBytes)  ETV
attr interpolationmode  none
attr source  receivedPacketFromUpperLayer
vector 88  CAIN.eNodeB.nic.mac  measuredItbs:vector  ETV
attr source  measuredItbs
attr title  "TBS index, vector"
attr unit  ""
vector 243  CAIN.ueD2DTx[4].nic.phy  averageCqiDlvect:vector  ETV
attr source  averageCqiDlvect
attr title  "Average Cqi reported in DL, vector"
attr unit  cqi
vector 231  CAIN.ueD2DTx[4].nic.mac  sentPacketToUpperLayer:vector(packetBytes)  ETV
attr interpolationmode  none
attr source  sentPacketToUpperLayer
vector 226  CAIN.ueD2DTx[4].nic.pdcpRrc  receivedPacketFromLowerLayer:vector(packetBytes)  ETV
attr interpolationmode  none
attr source  receivedPacketFromLowerLayer
vector 227  CAIN.ueD2DTx[4].nic.pdcpRrc  sentPacketToUpperLayer:vector(packetBytes)  ETV
attr interpolationmode  none
attr source  sentPacketToUpperLayer
vector 312  CAIN.ueD2DTx[3].tcp  tcpRcvQueueBytes  ETV
vector 299  CAIN.ueD2DTx[3].tcp  "advertised window"  ETV
vector 298  CAIN.ueD2DTx[3].tcp  "receive window"  ETV
vector 301  CAIN.ueD2DTx[3].tcp  "sent ack"  ETV
vector 198  CAIN.ueD2DTx[3].nic.pdcpRrc  receivedPacketFromUpperLayer:vector(packetBytes)  ETV
attr interpolationmode  none
attr source  receivedPacketFromUpperLayer
vector 201  CAIN.ueD2DTx[3].nic.pdcpRrc  sentPacketToLowerLayer:vector(packetBytes)  ETV
attr interpolationmode  none
attr source  sentPacketToLowerLayer
vector 202  CAIN.ueD2DTx[3].nic.mac  receivedPacketFromUpperLayer:vector(packetBytes)  ETV
attr interpolationmode  none
attr source  receivedPacketFromUpperLayer
vector 204  CAIN.ueD2DTx[3].nic.mac  sentPacketToUpperLayer:vector(packetBytes)  ETV
attr interpolationmode  none
attr source  sentPacketToUpperLayer
vector 336  CAIN.ueD2DTx[2].tcp  tcpRcvQueueBytes  ETV
vector 323  CAIN.ueD2DTx[2].tcp  "advertised window"  ETV
vector 322  CAIN.ueD2DTx[2].tcp  "receive window"  ETV
vector 325  CAIN.ueD2DTx[2].tcp  "sent ack"  ETV
vector 171  CAIN.ueD2DTx[2].nic.pdcpRrc  receivedPacketFromUpperLayer:vector(packetBytes)  ETV
attr interpolationmode  none
attr source  receivedPacketFromUpperLayer
vector 174  CAIN.ueD2DTx[2].nic.pdcpRrc  sentPacketToLowerLayer:vector(packetBytes)  ETV
attr interpolationmode  none
attr source  sentPacketToLowerLayer
vector 175  CAIN.ueD2DTx[2].nic.mac  receivedPacketFromUpperLayer:vector(packetBytes)  ETV
attr interpolationmode  none
attr source  receivedPacketFromUpperLayer
vector 177  CAIN.ueD2DTx[2].nic.mac  sentPacketToUpperLayer:vector(packetBytes)  ETV
attr interpolationmode  none
attr source  sentPacketToUpperLayer
vector 135  CAIN.ueD2DTx[0].nic.phy  averageCqiDlvect:vector  ETV
attr source  averageCqiDlvect
attr title  "Average Cqi reported in DL, vector"
attr unit  cqi
vector 360  CAIN.ueD2DTx[4].tcp  tcpRcvQueueBytes  ETV
vector 347  CAIN.ueD2DTx[4].tcp  "advertised window"  ETV
vector 346  CAIN.ueD2DTx[4].tcp  "receive window"  ETV
vector 349  CAIN.ueD2DTx[4].tcp  "sent ack"  ETV
vector 225  CAIN.ueD2DTx[4].nic.pdcpRrc  receivedPacketFromUpperLayer:vector(packetBytes)  ETV
attr interpolationmode  none
attr source  receivedPacketFromUpperLayer
vector 228  CAIN.ueD2DTx[4].nic.pdcpRrc  sentPacketToLowerLayer:vector(packetBytes)  ETV
attr interpolationmode  none
attr source  sentPacketToLowerLayer
vector 229  CAIN.ueD2DTx[4].nic.mac  receivedPacketFromUpperLayer:vector(packetBytes)  ETV
attr interpolationmode  none
attr source  receivedPacketFromUpperLayer
vector 118  CAIN.ueD2DTx[0].nic.pdcpRrc  receivedPacketFromLowerLayer:vector(packetBytes)  ETV
attr interpolationmode  none
attr source  receivedPacketFromLowerLayer
vector 119  CAIN.ueD2DTx[0].nic.pdcpRrc  sentPacketToUpperLayer:vector(packetBytes)  ETV
attr interpolationmode  none
attr source  sentPacketToUpperLayer
vector 216  CAIN.ueD2DTx[3].nic.phy  averageCqiDlvect:vector  ETV
attr source  averageCqiDlvect
attr title  "Average Cqi reported in DL, vector"
attr unit  cqi
vector 199  CAIN.ueD2DTx[3].nic.pdcpRrc  receivedPacketFromLowerLayer:vector(packetBytes)  ETV
attr interpolationmode  none
attr source  receivedPacketFromLowerLayer
vector 200  CAIN.ueD2DTx[3].nic.pdcpRrc  sentPacketToUpperLayer:vector(packetBytes)  ETV
attr interpolationmode  none
attr source  sentPacketToUpperLayer
8	17205 8 0 0 0 0 1 0 0 0 0
9	17213 8 0 0 0 0 1 0 0 0 0
24	17221 9 0 0 0 0 1 0 0 0 0
25	17230 9 0 0 0 0 1 0 0 0 0
35	17239 9 0 0 0 0 1 0 0 0 0
36	17248 9 0 0 0 0 1 0 0 0 0
56	17257 9 0 0 0 0 1 0 0 0 0
57	17266 9 0 0 0 0 1 0 0 0 0
67	17275 9 0 0 0 0 1 0 0 0 0
68	17284 9 0 0 0 0 1 0 0 0 0
80	17293 213 2074 246704 0.07 9.108 12 44 44 528 23232
81	17506 213 2069 246699 0.07 9.108 12 45 45 540 24300
82	17719 213 2069 246699 0.07 9.108 12 44 44 528 23232
83	17932 213 2074 246704 0.07 9.108 12 45 45 540 24300
84	18145 429 2077 246737 0.07 9.109 24 45 47 1104 50808
85	18574 364662 60 267382 0.002 9.998 20817 0 0 0 0
86	383236 417 2065 246733 0.07 9.109 24 0 47 564 26508
87	383653 180122 174 267351 0.012 9.998 10276 0 0 0 0
88	563775 216 2103 246733 0.071 9.109 12 26 26 312 8112
89	563991 214364 290 267382 0.016 9.998 10448 1 10448 54585576 380224927224
90	778355 101793 358 267382 0.018 9.998 5024 1 5024 12622800 42282172400
91	880148 106698 290 267327 0.016 9.996 5424 102 424 1404974 478778446
92	986846 97876 358 267382 0.018 9.998 5024 250 267 1294415 333796613
93	1084722 95850 290 267327 0.016 9.996 5424 1 4 15862 51990
96	1180572 143269 174 267382 0.012 9.998 7034 1 7034 24742095 116032178185
97	1323841 133321 174 267382 0.012 9.998 7034 52 266 857730 155937170
99	1457162 216 1944 246619 0.067 9.105 12 15 15 180 2700
104	1457378 10 0 0 0 0 1 0 0 0 0
105	1457388 10 0 0 0 0 1 0 0 0 0
117	1457398 84 1695 245226 0.061990650576 9.061990650576 3 44 44 132 5808
118	1457482 51 3328 246439 0.1 9.1 3 45 45 135 6075
119	1457533 51 3328 246439 0.1 9.1 3 44 44 132 5808
120	1457584 84 1695 245226 0.061990650576 9.061990650576 3 45 45 135 6075
121	1457668 141 1698 245362 0.061990650576 9.066 6 45 47 276 12702
122	1457809 181736 195 267402 0.013 9.999 9857 0 0 0 0
123	1639545 105 1877 246435 0.066 9.1 6 0 47 141 6627
124	1639650 208120 195 267402 0.013 9.999 11263 0 0 0 0
133	1847770 210011 195 267402 0.013 9.999 9848 1 9848 48496476 318411695924
134	2057781 194434 195 267402 0.013 9.999 9848 0 267 1130733 230338319
135	2252215 57 3225 246361 0.097 9.097 3 15 15 45 675
138	2252272 10 0 0 0 0 1 1 1 1 1
144	2252282 83 149 244041 0.010449835914 9.010449835914 3 44 44 132 5808
147	2252365 83 149 244041 0.010449835914 9.010449835914 3 45 45 135 6075
148	2252448 83 152 244044 0.010449835914 9.010449835914 3 45 45 135 6075
149	2252531 95483 230 267418 0.014 10 5214 0 0 0 0
151	2348014 95482 155 267418 0.011 10 5214 0 0 0 0
160	2443496 66783 258 267418 0.015 10 3216 1 3216 5172936 11092499096
161	2510279 64674 258 267418 0.015 10 3216 102 136 377281 45116941
165	2574953 10 0 0 0 0 1 1 1 1 1
171	2574963 84 2753 246009 0.086053438967 9.086053438967 3 44 44 132 5808
174	2575047 84 2753 246009 0.086053438967 9.086053438967 3 45 45 135 6075
175	2575131 141 2756 246152 0.086053438967 9.091 6 45 47 276 12702
176	2575272 58347 261 267421 0.015 10 3222 0 0 0 0
177	2633619 54 2942 246148 0.091 9.091 3 0 0 0 0
178	2633673 58350 261 267421 0.015 10 3222 0 0 0 0
187	2692023 66783 261 267421 0.015 10 3216 1 3216 5172936 11092499096
188	2758806 64674 261 267421 0.015 10 3216 102 136 377281 45116941
192	2823480 10 0 0 0 0 1 1 1 1 1
198	2823490 84 2334 245699 0.077833853802 9.077833853802 3 44 44 132 5808
199	2823574 57 3865 246838 0.113 9.113 3 45 45 135 6075
200	2823631 57 3865 246838 0.113 9.113 3 44 44 132 5808
201	2823688 84 2334 245699 0.077833853802 9.077833853802 3 45 45 135 6075
202	2823772 141 2337 245843 0.077833853802 9.082 6 45 47 276 12702
203	2823913 238568 204 267427 0.013 10 12871 0 0 0 0
204	3062481 111 2521 246834 0.082 9.113 6 0 47 141 6627
205	3062592 253846 204 267427 0.013 10 13675 0 0 0 0
214	3316438 278751 204 267427 0.013 10 12862 1 12862 82721953 709340746975
215	3595189 252073 204 267427 0.013 10 12862 0 135 774323 89343029
216	3847262 54 3785 246779 0.11 9.11 3 15 15 45 675
219	3847316 10 0 0 0 0 1 1 1 1 1
225	3847326 84 3314 246425 0.099814136955 9.099814136955 3 44 44 132 5808
226	3847410 114 2253 246158 0.075 9.091 6 45 45 270 12150
227	3847524 114 2253 246158 0.075 9.091 6 44 44 264 11616
228	3847638 84 3314 246425 0.099814136955 9.099814136955 3 45 45 135 6075
229	3847722 141 3317 246571 0.099814136955 9.104 6 45 47 276 12702
230	3847863 184516 232 267399 0.014 9.999 10064 0 0 0 0
231	4032379 168 2249 246567 0.075 9.104 9 0 47 282 13254
232	4032547 184510 232 267399 0.014 9.999 10064 0 0 0 0
241	4217057 213402 232 267399 0.014 9.999 10052 1 10052 50526378 338610943230
242	4430459 199982 232 267399 0.014 9.999 10052 52 266 1424606 281209538
243	4630441 114 2154 246052 0.072 9.088 6 15 15 90 1350
246	4630555 10 0 0 0 0 1 1 1 1 1
250	4630565 89 146 244038 0.010449835914 9.010449835914 3 7504 7504 22512 168930048
251	4630654 89 146 244038 0.010449835914 9.010449835914 3 7504 7504 22512 168930048
253	4630743 80 146 244038 0.010449835914 9.010449835914 3 0 0 0 0
264	4630823 80 146 244038 0.010449835914 9.010449835914 3 0 0 0 0
274	4630903 90 1692 245223 0.061990650576 9.061990650576 3 7504 7504 22512 168930048
275	4630993 90 1692 245223 0.061990650576 9.061990650576 3 7504 7504 22512 168930048
277	4631083 81 1692 245223 0.061990650576 9.061990650576 3 0 0 0 0
288	4631164 81 1692 245223 0.061990650576 9.061990650576 3 0 0 0 0
298	4631245 90 2331 245696 0.077833853802 9.077833853802 3 7504 7504 22512 168930048
299	4631335 90 2331 245696 0.077833853802 9.077833853802 3 7504 7504 22512 168930048
301	4631425 81 2331 245696 0.077833853802 9.077833853802 3 0 0 0 0
312	4631506 81 2331 245696 0.077833853802 9.077833853802 3 0 0 0 0
322	4631587 90 2750 246006 0.086053438967 9.086053438967 3 7504 7504 22512 168930048
323	4631677 90 2750 246006 0.086053438967 9.086053438967 3 7504 7504 22512 168930048
325	4631767 81 2750 246006 0.086053438967 9.086053438967 3 0 0 0 0
336	4631848 81 2750 246006 0.086053438967 9.086053438967 3 0 0 0 0
346	4631929 90 3311 246422 0.099814136955 9.099814136955 3 7504 7504 22512 168930048
347	4632019 90 3311 246422 0.099814136955 9.099814136955 3 7504 7504 22512 168930048
349	4632109 81 3311 246422 0.099814136955 9.099814136955 3 0 0 0 0
360	4632190 81 3311 246422 0.099814136955 9.099814136955 3 0 0 0 0
