version 2
run CAIN-26-20200508-17:47:39-19423
attr configname CAIN
attr datetime 20200508-17:47:39
attr dist 200
attr experiment CAIN
attr inifile omnetpp.ini
attr iterationvars "$numUe=20, $pwr=-50, $dist=200, $mob=\"./movements/RWPRPGM-0.5.movements\""
attr iterationvars2 "$numUe=20, $pwr=-50, $dist=200, $mob=\"./movements/RWPRPGM-0.5.movements\", $repetition=1"
attr measurement "$numUe=20, $pwr=-50, $dist=200, $mob=\"./movements/RWPRPGM-0.5.movements\""
attr mob "\"./movements/RWPRPGM-0.5.movements\""
attr network lte.simulations.networks.CAIN
attr numUe 20
attr processid 19423
attr pwr -50
attr repetition 1
attr replication #1
attr resultdir results
attr runnumber 26
attr seedset 1
param **.**.amcMode "\"AUTO\""
param **.amcMode "\"D2D\""
param **.cainNetwork true
param **.channelControl.alpha 1.0
param **.channelControl.carrierFrequency 2100e+6Hz
param **.channelControl.pMax 10W
param **.d2dCqi 7
param **.deployer.numRbDl 50
param **.deployer.numRbUl 50
param **.distThresh ${dist=200}
param **.fbDelay 1
param **.feedbackComputation "xmldoc(\"config_channel.xml\")"
param **.mobility.constraintAreaMaxX 1000m
param **.mobility.constraintAreaMaxY 1000m
param **.mobility.constraintAreaMaxZ 0m
param **.mobility.constraintAreaMinX 0m
param **.mobility.constraintAreaMinY 0m
param **.mobility.constraintAreaMinZ 0m
param **.nic.phy.channelModel "xmldoc(\"config_channel.xml\")"
param **.numBands 50
param **.pwrThresh "${pwr= -50}"
param **.qtdThresh 3
param **.rbAllocationType "\"localized\""
param **.routingRecorder.enabled false
param **.tcpApp[*].tClose -1s
param **.ueD2DTx[*].mobility.changeAngleBy "normal(0deg, 30deg)"
param **.ueD2DTx[*].mobility.changeInterval "normal(5s, 0.1s)"
param **.ueD2DTx[*].mobility.nodeId -1
param **.ueD2DTx[*].mobility.speed "normal(2mps, 0.01mps)"
param **.ueD2DTx[*].mobility.traceFile "${mob=\"./movements/RWP-0.0.movements\",\"./movements/RWP-0.5.movements\",\"./movements/RPGM-0.0.movements\",\"./movements/RPGM-0.5.movements\",\"./movements/RWPRPGM-0.0.movements\",\"./movements/RWPRPGM-0.5.movements\"}"
param **.ueD2DTx[*].mobilityType "\"BonnMotionMobility\""
param **.usePreconfiguredTxParams false
param *.eNodeB*.numX2Apps 1
param *.eNodeB*.x2App[*].server.localPort "5000 + ancestorIndex(1)"
param *.eNodeB.d2dCapable false
param *.eNodeB.mobility.initFromDisplayString false
param *.eNodeB.mobility.initialX 300m
param *.eNodeB.mobility.initialY 300m
param *.eNodeB.nic.phy.enableD2DCqiReporting true
param *.eNodeB.txPower 19952.62315mw
param *.eNodeB.x2App[0].client.connectAddress "\"eNodeB1%x2ppp0\""
param *.eNodeB1.d2dCapable true
param *.eNodeB1.mobility.initFromDisplayString false
param *.eNodeB1.mobility.initialX 700m
param *.eNodeB1.mobility.initialY 300m
param *.eNodeB1.nic.phy.enableD2DCqiReporting true
param *.eNodeB1.txPower 19952.62315mw
param *.eNodeB1.x2App[0].client.connectAddress "\"eNodeB%x2ppp0\""
param *.extCell[*].bandAllocationType "\"FULL_ALLOC\""
param *.extCell[*].bandUtilization 0.5
param *.extCell[*].txDirection "\"ANISOTROPIC\""
param *.extCell[*].txPower 20
param *.extCell[0].position_x 100m
param *.extCell[0].position_y 600m
param *.extCell[0].txAngle 315
param *.extCell[1].position_x 600m
param *.extCell[1].position_y 600m
param *.extCell[1].txAngle 225
param *.numExtCells 2
param *.numUeCell 0
param *.numUeD2DRx 1
param *.numUeD2DTx 1
param *.ue*.macCellId 1
param *.ue*.masterId 1
param *.ue*.mobility.initFromDisplayString false
param *.ue*[0].macCellId 1
param *.ue*[0].masterId 1
param *.ue*[0].mobility.initFromDisplayString false
param *.ueD2D*.numTcpApps 1
param *.ueD2D*[*].d2dCapable true
param *.ueD2D*[0].d2dCapable false
param *.ueD2D*[0].numTcpApps 1
param *.ueD2DRx[0].mobility.initialX 310m
param *.ueD2DRx[0].mobility.initialY 350m
param *.ueD2DRx[0].tcpApp[*].localPort 1000
param *.ueD2DRx[0].tcpApp[*].typename "\"TCPSinkApp\""
param *.ueD2DTx*.nic.d2dPeerAddresses "\"ueD2DTx[1]\""
param *.ueD2DTx*.tcpApp[*].connectAddress "\"ueD2DTx[0]\""
param *.ueD2DTx*.tcpApp[*].localAddress "\"ueD2DTx\""
param *.ueD2DTx*.tcpApp[*].localPort 1000
param *.ueD2DTx*.tcpApp[*].sendBytes 1GiB
param *.ueD2DTx*.tcpApp[*].typename "\"TCPSessionApp\""
param *.ueD2DTx*.tcpApp[0].active true
param *.ueD2DTx*.tcpApp[0].connectPort 1000
param *.ueD2DTx*.tcpApp[0].tOpen uniform(0.010s,0.1s)
param *.ueD2DTx*.tcpApp[0].tSend uniform(0.15s,0.5s)
param *.ueD2DTx[0].mobility.initialX 290m
param *.ueD2DTx[0].mobility.initialY 350m
param *.ueD2DTx[0].tcpApp[*].localPort 1000
param *.ueD2DTx[0].tcpApp[*].sendBytes 1GiB
param *.ueD2DTx[0].tcpApp[*].typename "\"TCPSessionApp\""
param *.ueD2DTx[0].tcpApp[0].active true
param *.ueD2DTx[0].tcpApp[0].connectAddress "\"ueD2DRx[0]\""
param *.ueD2DTx[0].tcpApp[0].connectPort 1000
param *.ueD2DTx[0].tcpApp[0].localAddress "\"ueD2DTx[0]\""
param *.ueD2DTx[0].tcpApp[0].tOpen uniform(0.010s,0.1s)
param *.ueD2DTx[0].tcpApp[0].tSend uniform(0.15s,0.5s)
param *.ueD2DTx[1].mobility.initialX 690m
param *.ueD2DTx[1].mobility.initialY 250m

vector 8  CAIN.server.ppp[0].queue  queueLength:vector  ETV
attr interpolationmode  sample-hold
attr title  "queue length, vector"
vector 9  CAIN.server.ppp[0].ppp  txState:vector  ETV
attr interpolationmode  sample-hold
attr title  "tx state, vector"
vector 24  CAIN.router.ppp[0].queue  queueLength:vector  ETV
attr interpolationmode  sample-hold
attr title  "queue length, vector"
vector 25  CAIN.router.ppp[0].ppp  txState:vector  ETV
attr interpolationmode  sample-hold
attr title  "tx state, vector"
vector 35  CAIN.router.ppp[1].queue  queueLength:vector  ETV
attr interpolationmode  sample-hold
attr title  "queue length, vector"
vector 36  CAIN.router.ppp[1].ppp  txState:vector  ETV
attr interpolationmode  sample-hold
attr title  "tx state, vector"
vector 56  CAIN.pgw.ppp[0].queue  queueLength:vector  ETV
attr interpolationmode  sample-hold
attr title  "queue length, vector"
vector 57  CAIN.pgw.ppp[0].ppp  txState:vector  ETV
attr interpolationmode  sample-hold
attr title  "tx state, vector"
vector 67  CAIN.pgw.ppp[1].queue  queueLength:vector  ETV
attr interpolationmode  sample-hold
attr title  "queue length, vector"
vector 68  CAIN.pgw.ppp[1].ppp  txState:vector  ETV
attr interpolationmode  sample-hold
attr title  "tx state, vector"
vector 78  CAIN.pgw.pppInterface.queue  queueLength:vector  ETV
attr interpolationmode  sample-hold
attr title  "queue length, vector"
vector 79  CAIN.pgw.pppInterface.ppp  txState:vector  ETV
attr interpolationmode  sample-hold
attr title  "tx state, vector"
vector 120  CAIN.eNodeB.pppIf.queue  queueLength:vector  ETV
attr interpolationmode  sample-hold
attr title  "queue length, vector"
vector 121  CAIN.eNodeB.pppIf.ppp  txState:vector  ETV
attr interpolationmode  sample-hold
attr title  "tx state, vector"
vector 131  CAIN.eNodeB.x2ppp[0].queue  queueLength:vector  ETV
attr interpolationmode  sample-hold
attr title  "queue length, vector"
vector 132  CAIN.eNodeB.x2ppp[0].ppp  txState:vector  ETV
attr interpolationmode  sample-hold
attr title  "tx state, vector"
vector 178  CAIN.eNodeB1.pppIf.queue  queueLength:vector  ETV
attr interpolationmode  sample-hold
attr title  "queue length, vector"
vector 179  CAIN.eNodeB1.pppIf.ppp  txState:vector  ETV
attr interpolationmode  sample-hold
attr title  "tx state, vector"
vector 189  CAIN.eNodeB1.x2ppp[0].queue  queueLength:vector  ETV
attr interpolationmode  sample-hold
attr title  "queue length, vector"
vector 190  CAIN.eNodeB1.x2ppp[0].ppp  txState:vector  ETV
attr interpolationmode  sample-hold
attr title  "tx state, vector"
vector 231  CAIN.ueD2DTx[0].nic.phy  servingCell:vector  ETV
attr source  servingCell
attr title  "ID of the serving eNodeB for the UE, vector"
attr unit  ""
vector 263  CAIN.ueD2DTx[1].nic.phy  servingCell:vector  ETV
attr source  servingCell
attr title  "ID of the serving eNodeB for the UE, vector"
attr unit  ""
vector 295  CAIN.ueD2DTx[2].nic.phy  servingCell:vector  ETV
attr source  servingCell
attr title  "ID of the serving eNodeB for the UE, vector"
attr unit  ""
vector 327  CAIN.ueD2DTx[3].nic.phy  servingCell:vector  ETV
attr source  servingCell
attr title  "ID of the serving eNodeB for the UE, vector"
attr unit  ""
vector 359  CAIN.ueD2DTx[4].nic.phy  servingCell:vector  ETV
attr source  servingCell
attr title  "ID of the serving eNodeB for the UE, vector"
attr unit  ""
vector 391  CAIN.ueD2DTx[5].nic.phy  servingCell:vector  ETV
attr source  servingCell
attr title  "ID of the serving eNodeB for the UE, vector"
attr unit  ""
vector 423  CAIN.ueD2DTx[6].nic.phy  servingCell:vector  ETV
attr source  servingCell
attr title  "ID of the serving eNodeB for the UE, vector"
attr unit  ""
vector 455  CAIN.ueD2DTx[7].nic.phy  servingCell:vector  ETV
attr source  servingCell
attr title  "ID of the serving eNodeB for the UE, vector"
attr unit  ""
vector 487  CAIN.ueD2DTx[8].nic.phy  servingCell:vector  ETV
attr source  servingCell
attr title  "ID of the serving eNodeB for the UE, vector"
attr unit  ""
vector 519  CAIN.ueD2DTx[9].nic.phy  servingCell:vector  ETV
attr source  servingCell
attr title  "ID of the serving eNodeB for the UE, vector"
attr unit  ""
vector 551  CAIN.ueD2DTx[10].nic.phy  servingCell:vector  ETV
attr source  servingCell
attr title  "ID of the serving eNodeB for the UE, vector"
attr unit  ""
vector 583  CAIN.ueD2DTx[11].nic.phy  servingCell:vector  ETV
attr source  servingCell
attr title  "ID of the serving eNodeB for the UE, vector"
attr unit  ""
vector 615  CAIN.ueD2DTx[12].nic.phy  servingCell:vector  ETV
attr source  servingCell
attr title  "ID of the serving eNodeB for the UE, vector"
attr unit  ""
vector 647  CAIN.ueD2DTx[13].nic.phy  servingCell:vector  ETV
attr source  servingCell
attr title  "ID of the serving eNodeB for the UE, vector"
attr unit  ""
vector 679  CAIN.ueD2DTx[14].nic.phy  servingCell:vector  ETV
attr source  servingCell
attr title  "ID of the serving eNodeB for the UE, vector"
attr unit  ""
vector 711  CAIN.ueD2DTx[15].nic.phy  servingCell:vector  ETV
attr source  servingCell
attr title  "ID of the serving eNodeB for the UE, vector"
attr unit  ""
vector 743  CAIN.ueD2DTx[16].nic.phy  servingCell:vector  ETV
attr source  servingCell
attr title  "ID of the serving eNodeB for the UE, vector"
attr unit  ""
vector 775  CAIN.ueD2DTx[17].nic.phy  servingCell:vector  ETV
attr source  servingCell
attr title  "ID of the serving eNodeB for the UE, vector"
attr unit  ""
vector 807  CAIN.ueD2DTx[18].nic.phy  servingCell:vector  ETV
attr source  servingCell
attr title  "ID of the serving eNodeB for the UE, vector"
attr unit  ""
vector 839  CAIN.ueD2DTx[19].nic.phy  servingCell:vector  ETV
attr source  servingCell
attr title  "ID of the serving eNodeB for the UE, vector"
attr unit  ""
vector 863  CAIN.eNodeB.sctp  "Throughput of Association 3"  ETV
vector 885  CAIN.eNodeB1.sctp  "Throughput of Association 4"  ETV
vector 907  CAIN.eNodeB.sctp  "Throughput of Association 1"  ETV
vector 927  CAIN.eNodeB.sctp  "Fast Recovery State 1:10.0.5.2"  ETV
vector 956  CAIN.eNodeB1.sctp  "Throughput of Association 2"  ETV
vector 976  CAIN.eNodeB1.sctp  "Fast Recovery State 2:10.0.5.1"  ETV
vector 128  CAIN.eNodeB.x2ppp[0].queue  rcvdPk:vector(packetBytes)  ETV
attr interpolationmode  none
attr title  "received packets, vector(packetBytes)"
vector 130  CAIN.eNodeB.x2ppp[0].queue  queueingTime:vector  ETV
attr interpolationmode  none
attr title  "queueing time, vector"
vector 186  CAIN.eNodeB1.x2ppp[0].queue  rcvdPk:vector(packetBytes)  ETV
attr interpolationmode  none
attr title  "received packets, vector(packetBytes)"
vector 188  CAIN.eNodeB1.x2ppp[0].queue  queueingTime:vector  ETV
attr interpolationmode  none
attr title  "queueing time, vector"
vector 137  CAIN.eNodeB.x2ppp[0].ppp  rcvdPkFromHL:vector(packetBytes)  ETV
attr interpolationmode  none
attr source  packetReceivedFromUpper
attr title  "packets received from higher layer, vector(packetBytes)"
vector 133  CAIN.eNodeB.x2ppp[0].ppp  txPk:vector(packetBytes)  ETV
attr interpolationmode  none
attr source  packetSentToLower
attr title  "packets transmitted, vector(packetBytes)"
vector 195  CAIN.eNodeB1.x2ppp[0].ppp  rcvdPkFromHL:vector(packetBytes)  ETV
attr interpolationmode  none
attr source  packetReceivedFromUpper
attr title  "packets received from higher layer, vector(packetBytes)"
vector 191  CAIN.eNodeB1.x2ppp[0].ppp  txPk:vector(packetBytes)  ETV
attr interpolationmode  none
attr source  packetSentToLower
attr title  "packets transmitted, vector(packetBytes)"
vector 192  CAIN.eNodeB1.x2ppp[0].ppp  rxPkOk:vector(packetBytes)  ETV
attr interpolationmode  none
attr source  rxPkOk
attr title  "packets received OK, vector(packetBytes)"
vector 196  CAIN.eNodeB1.x2ppp[0].ppp  passedUpPk:vector(packetBytes)  ETV
attr interpolationmode  none
attr source  packetSentToUpper
attr title  "packets passed to higher layer, vector(packetBytes)"
vector 134  CAIN.eNodeB.x2ppp[0].ppp  rxPkOk:vector(packetBytes)  ETV
attr interpolationmode  none
attr source  rxPkOk
attr title  "packets received OK, vector(packetBytes)"
vector 138  CAIN.eNodeB.x2ppp[0].ppp  passedUpPk:vector(packetBytes)  ETV
attr interpolationmode  none
attr source  packetSentToUpper
attr title  "packets passed to higher layer, vector(packetBytes)"
vector 1005  CAIN.eNodeB1.sctp  "Throughput of Association 4"  ETV
vector 882  CAIN.eNodeB1.sctp  "Peer Rwnd 4"  ETV
vector 1025  CAIN.eNodeB1.sctp  "Fast Recovery State 5:10.0.4.1"  ETV
vector 1052  CAIN.eNodeB1.sctp  "Fast Recovery State 5:10.0.2.2"  ETV
vector 1079  CAIN.eNodeB1.sctp  "Fast Recovery State 5:10.0.5.1"  ETV
vector 1108  CAIN.eNodeB.sctp  "Throughput of Association 3"  ETV
vector 860  CAIN.eNodeB.sctp  "Peer Rwnd 3"  ETV
vector 1128  CAIN.eNodeB.sctp  "Fast Recovery State 6:10.0.4.2"  ETV
vector 1155  CAIN.eNodeB.sctp  "Fast Recovery State 6:10.0.3.2"  ETV
vector 1182  CAIN.eNodeB.sctp  "Fast Recovery State 6:10.0.5.2"  ETV
vector 904  CAIN.eNodeB.sctp  "Peer Rwnd 1"  ETV
vector 1209  CAIN.eNodeB.sctp  "Fast Recovery State 1:10.0.4.2"  ETV
vector 1236  CAIN.eNodeB.sctp  "Fast Recovery State 1:10.0.3.2"  ETV
vector 953  CAIN.eNodeB1.sctp  "Peer Rwnd 2"  ETV
vector 1263  CAIN.eNodeB1.sctp  "Fast Recovery State 2:10.0.4.1"  ETV
vector 1290  CAIN.eNodeB1.sctp  "Fast Recovery State 2:10.0.2.2"  ETV
vector 1035  CAIN.eNodeB1.sctp  "Slow Start Threshold 5:10.0.2.2"  ETV
vector 1036  CAIN.eNodeB1.sctp  "Congestion Window 5:10.0.2.2"  ETV
vector 1037  CAIN.eNodeB1.sctp  "Bandwidth 5:10.0.2.2"  ETV
vector 1040  CAIN.eNodeB1.sctp  "HB Sent 5:10.0.2.2"  ETV
vector 1033  CAIN.eNodeB1.sctp  "RTO 5:10.0.2.2"  ETV
vector 1008  CAIN.eNodeB1.sctp  "Slow Start Threshold 5:10.0.4.1"  ETV
vector 1009  CAIN.eNodeB1.sctp  "Congestion Window 5:10.0.4.1"  ETV
vector 1010  CAIN.eNodeB1.sctp  "Bandwidth 5:10.0.4.1"  ETV
vector 1013  CAIN.eNodeB1.sctp  "HB Sent 5:10.0.4.1"  ETV
vector 1006  CAIN.eNodeB1.sctp  "RTO 5:10.0.4.1"  ETV
vector 1062  CAIN.eNodeB1.sctp  "Slow Start Threshold 5:10.0.5.1"  ETV
vector 1063  CAIN.eNodeB1.sctp  "Congestion Window 5:10.0.5.1"  ETV
vector 1064  CAIN.eNodeB1.sctp  "Bandwidth 5:10.0.5.1"  ETV
vector 1060  CAIN.eNodeB1.sctp  "RTO 5:10.0.5.1"  ETV
vector 1138  CAIN.eNodeB.sctp  "Slow Start Threshold 6:10.0.3.2"  ETV
vector 1139  CAIN.eNodeB.sctp  "Congestion Window 6:10.0.3.2"  ETV
vector 1140  CAIN.eNodeB.sctp  "Bandwidth 6:10.0.3.2"  ETV
vector 1143  CAIN.eNodeB.sctp  "HB Sent 6:10.0.3.2"  ETV
vector 1136  CAIN.eNodeB.sctp  "RTO 6:10.0.3.2"  ETV
vector 1111  CAIN.eNodeB.sctp  "Slow Start Threshold 6:10.0.4.2"  ETV
vector 1112  CAIN.eNodeB.sctp  "Congestion Window 6:10.0.4.2"  ETV
vector 1113  CAIN.eNodeB.sctp  "Bandwidth 6:10.0.4.2"  ETV
vector 1116  CAIN.eNodeB.sctp  "HB Sent 6:10.0.4.2"  ETV
vector 1109  CAIN.eNodeB.sctp  "RTO 6:10.0.4.2"  ETV
vector 1165  CAIN.eNodeB.sctp  "Slow Start Threshold 6:10.0.5.2"  ETV
vector 1166  CAIN.eNodeB.sctp  "Congestion Window 6:10.0.5.2"  ETV
vector 1167  CAIN.eNodeB.sctp  "Bandwidth 6:10.0.5.2"  ETV
vector 1163  CAIN.eNodeB.sctp  "RTO 6:10.0.5.2"  ETV
vector 916  CAIN.eNodeB.sctp  "HB ACK Sent 1:10.0.5.2"  ETV
vector 917  CAIN.eNodeB.sctp  "HB Received 1:10.0.5.2"  ETV
vector 965  CAIN.eNodeB1.sctp  "HB ACK Sent 2:10.0.5.1"  ETV
vector 966  CAIN.eNodeB1.sctp  "HB Received 2:10.0.5.1"  ETV
vector 1219  CAIN.eNodeB.sctp  "Slow Start Threshold 1:10.0.3.2"  ETV
vector 1220  CAIN.eNodeB.sctp  "Congestion Window 1:10.0.3.2"  ETV
vector 1221  CAIN.eNodeB.sctp  "Bandwidth 1:10.0.3.2"  ETV
vector 1224  CAIN.eNodeB.sctp  "HB Sent 1:10.0.3.2"  ETV
vector 1217  CAIN.eNodeB.sctp  "RTO 1:10.0.3.2"  ETV
vector 1192  CAIN.eNodeB.sctp  "Slow Start Threshold 1:10.0.4.2"  ETV
vector 1193  CAIN.eNodeB.sctp  "Congestion Window 1:10.0.4.2"  ETV
vector 1194  CAIN.eNodeB.sctp  "Bandwidth 1:10.0.4.2"  ETV
vector 1197  CAIN.eNodeB.sctp  "HB Sent 1:10.0.4.2"  ETV
vector 1190  CAIN.eNodeB.sctp  "RTO 1:10.0.4.2"  ETV
vector 910  CAIN.eNodeB.sctp  "Slow Start Threshold 1:10.0.5.2"  ETV
vector 911  CAIN.eNodeB.sctp  "Congestion Window 1:10.0.5.2"  ETV
vector 912  CAIN.eNodeB.sctp  "Bandwidth 1:10.0.5.2"  ETV
vector 908  CAIN.eNodeB.sctp  "RTO 1:10.0.5.2"  ETV
vector 1273  CAIN.eNodeB1.sctp  "Slow Start Threshold 2:10.0.2.2"  ETV
vector 1274  CAIN.eNodeB1.sctp  "Congestion Window 2:10.0.2.2"  ETV
vector 1275  CAIN.eNodeB1.sctp  "Bandwidth 2:10.0.2.2"  ETV
vector 1278  CAIN.eNodeB1.sctp  "HB Sent 2:10.0.2.2"  ETV
vector 1271  CAIN.eNodeB1.sctp  "RTO 2:10.0.2.2"  ETV
vector 1246  CAIN.eNodeB1.sctp  "Slow Start Threshold 2:10.0.4.1"  ETV
vector 1247  CAIN.eNodeB1.sctp  "Congestion Window 2:10.0.4.1"  ETV
vector 1248  CAIN.eNodeB1.sctp  "Bandwidth 2:10.0.4.1"  ETV
vector 1251  CAIN.eNodeB1.sctp  "HB Sent 2:10.0.4.1"  ETV
vector 1244  CAIN.eNodeB1.sctp  "RTO 2:10.0.4.1"  ETV
vector 959  CAIN.eNodeB1.sctp  "Slow Start Threshold 2:10.0.5.1"  ETV
vector 960  CAIN.eNodeB1.sctp  "Congestion Window 2:10.0.5.1"  ETV
vector 961  CAIN.eNodeB1.sctp  "Bandwidth 2:10.0.5.1"  ETV
vector 957  CAIN.eNodeB1.sctp  "RTO 2:10.0.5.1"  ETV
vector 1173  CAIN.eNodeB.sctp  "HB ACK Received 6:10.0.5.2"  ETV
vector 1164  CAIN.eNodeB.sctp  "RTT 6:10.0.5.2"  ETV
vector 1070  CAIN.eNodeB1.sctp  "HB ACK Received 5:10.0.5.1"  ETV
vector 1061  CAIN.eNodeB1.sctp  "RTT 5:10.0.5.1"  ETV
vector 1171  CAIN.eNodeB.sctp  "HB ACK Sent 6:10.0.5.2"  ETV
vector 1172  CAIN.eNodeB.sctp  "HB Received 6:10.0.5.2"  ETV
vector 1068  CAIN.eNodeB1.sctp  "HB ACK Sent 5:10.0.5.1"  ETV
vector 1069  CAIN.eNodeB1.sctp  "HB Received 5:10.0.5.1"  ETV
vector 967  CAIN.eNodeB1.sctp  "HB ACK Received 2:10.0.5.1"  ETV
vector 958  CAIN.eNodeB1.sctp  "RTT 2:10.0.5.1"  ETV
vector 918  CAIN.eNodeB.sctp  "HB ACK Received 1:10.0.5.2"  ETV
vector 909  CAIN.eNodeB.sctp  "RTT 1:10.0.5.2"  ETV
vector 96  CAIN.eNodeB.nic.mac  receivedPacketFromLowerLayer:vector(packetBytes)  ETV
attr interpolationmode  none
attr source  receivedPacketFromLowerLayer
vector 1305  CAIN.eNodeB.sctp  "SendQueue of Association 6"  ETV
vector 1168  CAIN.eNodeB.sctp  "TSN Sent 6:10.0.5.2"  ETV
vector 1175  CAIN.eNodeB.sctp  "Outstanding Bytes 6:10.0.5.2"  ETV
vector 848  CAIN.eNodeB.sctp  "Outstanding Bytes 3:Total"  ETV
vector 1174  CAIN.eNodeB.sctp  "Queued Sent Bytes 6:10.0.5.2"  ETV
vector 847  CAIN.eNodeB.sctp  "Queued Sent Bytes 3:Total"  ETV
vector 963  CAIN.eNodeB1.sctp  "TSN Received 2:10.0.5.1"  ETV
vector 939  CAIN.eNodeB1.sctp  "Queued Received Bytes 2:Total"  ETV
vector 935  CAIN.eNodeB1.sctp  "Advertised Receiver Window 2"  ETV
vector 944  CAIN.eNodeB1.sctp  "Number of Total Gap Blocks Stored 2"  ETV
vector 945  CAIN.eNodeB1.sctp  "Number of Revokable Gap Blocks Stored 2"  ETV
vector 946  CAIN.eNodeB1.sctp  "Number of Non-Revokable Gap Blocks Stored 2"  ETV
vector 947  CAIN.eNodeB1.sctp  "Number of Duplicate TSNs Stored 2"  ETV
vector 951  CAIN.eNodeB1.sctp  "Length of SACK Sent 2"  ETV
vector 948  CAIN.eNodeB1.sctp  "Number of Revokable Gap Blocks Sent 2"  ETV
vector 949  CAIN.eNodeB1.sctp  "Number of Non-Revokable Gap Blocks Sent 2"  ETV
vector 950  CAIN.eNodeB1.sctp  "Number of Duplicate TSNs Sent 2"  ETV
vector 955  CAIN.eNodeB1.sctp  "End to End Delay of Association 2"  ETV
vector 199  CAIN.eNodeB1.x2App[0].client  rcvdPk:vector(packetBytes)  ETV
attr interpolationmode  none
attr source  rcvdPk
attr title  "packets received, vector(packetBytes)"
vector 1304  CAIN.eNodeB.sctp  "Number of Gap Blocks in Last SACK of Association 6"  ETV
vector 849  CAIN.eNodeB.sctp  "Number of Revokable Gap Blocks in SACK 3"  ETV
vector 850  CAIN.eNodeB.sctp  "Number of Non-Revokable Gap Blocks in SACK 3"  ETV
vector 1185  CAIN.eNodeB.sctp  "TSN Acked CumAck 6:10.0.5.2"  ETV
vector 1151  CAIN.eNodeB.sctp  "Number of Gap Acked Chunks in Last SACK 6:10.0.3.2"  ETV
vector 1152  CAIN.eNodeB.sctp  "Number of Non-Revokable Gap Acked Chunks in Last SACK 6:10.0.3.2"  ETV
vector 1153  CAIN.eNodeB.sctp  "Number of Gap Missed Chunks in Last SACK 6:10.0.3.2"  ETV
vector 1124  CAIN.eNodeB.sctp  "Number of Gap Acked Chunks in Last SACK 6:10.0.4.2"  ETV
vector 1125  CAIN.eNodeB.sctp  "Number of Non-Revokable Gap Acked Chunks in Last SACK 6:10.0.4.2"  ETV
vector 1126  CAIN.eNodeB.sctp  "Number of Gap Missed Chunks in Last SACK 6:10.0.4.2"  ETV
vector 1178  CAIN.eNodeB.sctp  "Number of Gap Acked Chunks in Last SACK 6:10.0.5.2"  ETV
vector 1179  CAIN.eNodeB.sctp  "Number of Non-Revokable Gap Acked Chunks in Last SACK 6:10.0.5.2"  ETV
vector 1180  CAIN.eNodeB.sctp  "Number of Gap Missed Chunks in Last SACK 6:10.0.5.2"  ETV
vector 859  CAIN.eNodeB.sctp  "Arwnd in Last SACK 3"  ETV
vector 1187  CAIN.eNodeB.sctp  "TSN PseudoCumAck 6:10.0.5.2"  ETV
vector 1188  CAIN.eNodeB.sctp  "TSN RTXPseudoCumAck 6:10.0.5.2"  ETV
vector 1181  CAIN.eNodeB.sctp  "Partial Bytes Acked 6:10.0.5.2"  ETV
vector 1333  CAIN.ueD2DTx[13].tcp  tcpRcvQueueBytes  ETV
vector 1320  CAIN.ueD2DTx[13].tcp  "advertised window"  ETV
vector 1319  CAIN.ueD2DTx[13].tcp  "receive window"  ETV
vector 1322  CAIN.ueD2DTx[13].tcp  "sent ack"  ETV
vector 621  CAIN.ueD2DTx[13].nic.pdcpRrc  receivedPacketFromUpperLayer:vector(packetBytes)  ETV
attr interpolationmode  none
attr source  receivedPacketFromUpperLayer
vector 624  CAIN.ueD2DTx[13].nic.pdcpRrc  sentPacketToLowerLayer:vector(packetBytes)  ETV
attr interpolationmode  none
attr source  sentPacketToLowerLayer
vector 625  CAIN.ueD2DTx[13].nic.mac  receivedPacketFromUpperLayer:vector(packetBytes)  ETV
attr interpolationmode  none
attr source  receivedPacketFromUpperLayer
vector 635  CAIN.ueD2DTx[13].nic.mac  CainHopMessageSent:vector  ETV
attr interpolationmode  none
attr title  "# of Sent CAIN hop message, vector"
vector 628  CAIN.ueD2DTx[13].nic.mac  sentPacketToLowerLayer:vector(packetBytes)  ETV
attr interpolationmode  none
attr source  sentPacketToLowerLayer
vector 498  CAIN.ueD2DTx[9].nic.mac  receivedPacketFromLowerLayer:vector(packetBytes)  ETV
attr interpolationmode  none
attr source  receivedPacketFromLowerLayer
vector 500  CAIN.ueD2DTx[9].nic.mac  sentPacketToLowerLayer:vector(packetBytes)  ETV
attr interpolationmode  none
attr source  sentPacketToLowerLayer
vector 562  CAIN.ueD2DTx[11].nic.mac  receivedPacketFromLowerLayer:vector(packetBytes)  ETV
attr interpolationmode  none
attr source  receivedPacketFromLowerLayer
vector 564  CAIN.ueD2DTx[11].nic.mac  sentPacketToLowerLayer:vector(packetBytes)  ETV
attr interpolationmode  none
attr source  sentPacketToLowerLayer
vector 111  CAIN.eNodeB.nic.mac  racpkt:vector  ETV
attr interpolationmode  none
attr title  "eNB received racpkt message, vector"
vector 112  CAIN.eNodeB.nic.mac  racDistanceSignal:vector  ETV
attr interpolationmode  none
attr title  "Rac distance to enb, vector"
vector 113  CAIN.eNodeB.nic.mac  racServedDevsSignal:vector  ETV
attr interpolationmode  none
attr title  "# of devices served on rac arriavall, vector"
vector 106  CAIN.eNodeB.nic.mac  DistanceSignal:vector  ETV
attr interpolationmode  none
attr title  "Distance to enb, vector"
vector 101  CAIN.eNodeB.nic.mac  CainHopMessage:vector  ETV
attr interpolationmode  none
attr title  "eNB received CAIN hop message, vector"
vector 98  CAIN.eNodeB.nic.mac  sentPacketToLowerLayer:vector(packetBytes)  ETV
attr interpolationmode  none
attr source  sentPacketToLowerLayer
vector 569  CAIN.ueD2DTx[11].nic.mac  DropedHopMessage:vector  ETV
attr interpolationmode  none
attr title  "Droped Hop CAIN message due to RB not available, vector"
vector 1357  CAIN.ueD2DTx[18].tcp  tcpRcvQueueBytes  ETV
vector 1344  CAIN.ueD2DTx[18].tcp  "advertised window"  ETV
vector 1343  CAIN.ueD2DTx[18].tcp  "receive window"  ETV
vector 1346  CAIN.ueD2DTx[18].tcp  "sent ack"  ETV
vector 781  CAIN.ueD2DTx[18].nic.pdcpRrc  receivedPacketFromUpperLayer:vector(packetBytes)  ETV
attr interpolationmode  none
attr source  receivedPacketFromUpperLayer
vector 784  CAIN.ueD2DTx[18].nic.pdcpRrc  sentPacketToLowerLayer:vector(packetBytes)  ETV
attr interpolationmode  none
attr source  sentPacketToLowerLayer
vector 785  CAIN.ueD2DTx[18].nic.mac  receivedPacketFromUpperLayer:vector(packetBytes)  ETV
attr interpolationmode  none
attr source  receivedPacketFromUpperLayer
vector 795  CAIN.ueD2DTx[18].nic.mac  CainHopMessageSent:vector  ETV
attr interpolationmode  none
attr title  "# of Sent CAIN hop message, vector"
vector 788  CAIN.ueD2DTx[18].nic.mac  sentPacketToLowerLayer:vector(packetBytes)  ETV
attr interpolationmode  none
attr source  sentPacketToLowerLayer
vector 274  CAIN.ueD2DTx[2].nic.mac  receivedPacketFromLowerLayer:vector(packetBytes)  ETV
attr interpolationmode  none
attr source  receivedPacketFromLowerLayer
vector 276  CAIN.ueD2DTx[2].nic.mac  sentPacketToLowerLayer:vector(packetBytes)  ETV
attr interpolationmode  none
attr source  sentPacketToLowerLayer
vector 690  CAIN.ueD2DTx[15].nic.mac  receivedPacketFromLowerLayer:vector(packetBytes)  ETV
attr interpolationmode  none
attr source  receivedPacketFromLowerLayer
vector 692  CAIN.ueD2DTx[15].nic.mac  sentPacketToLowerLayer:vector(packetBytes)  ETV
attr interpolationmode  none
attr source  sentPacketToLowerLayer
vector 697  CAIN.ueD2DTx[15].nic.mac  DropedHopMessage:vector  ETV
attr interpolationmode  none
attr title  "Droped Hop CAIN message due to RB not available, vector"
vector 1381  CAIN.ueD2DTx[6].tcp  tcpRcvQueueBytes  ETV
vector 1368  CAIN.ueD2DTx[6].tcp  "advertised window"  ETV
vector 1367  CAIN.ueD2DTx[6].tcp  "receive window"  ETV
vector 1370  CAIN.ueD2DTx[6].tcp  "sent ack"  ETV
vector 397  CAIN.ueD2DTx[6].nic.pdcpRrc  receivedPacketFromUpperLayer:vector(packetBytes)  ETV
attr interpolationmode  none
attr source  receivedPacketFromUpperLayer
vector 400  CAIN.ueD2DTx[6].nic.pdcpRrc  sentPacketToLowerLayer:vector(packetBytes)  ETV
attr interpolationmode  none
attr source  sentPacketToLowerLayer
vector 401  CAIN.ueD2DTx[6].nic.mac  receivedPacketFromUpperLayer:vector(packetBytes)  ETV
attr interpolationmode  none
attr source  receivedPacketFromUpperLayer
vector 411  CAIN.ueD2DTx[6].nic.mac  CainHopMessageSent:vector  ETV
attr interpolationmode  none
attr title  "# of Sent CAIN hop message, vector"
vector 404  CAIN.ueD2DTx[6].nic.mac  sentPacketToLowerLayer:vector(packetBytes)  ETV
attr interpolationmode  none
attr source  sentPacketToLowerLayer
vector 1405  CAIN.ueD2DTx[14].tcp  tcpRcvQueueBytes  ETV
vector 1392  CAIN.ueD2DTx[14].tcp  "advertised window"  ETV
vector 1391  CAIN.ueD2DTx[14].tcp  "receive window"  ETV
vector 1394  CAIN.ueD2DTx[14].tcp  "sent ack"  ETV
vector 653  CAIN.ueD2DTx[14].nic.pdcpRrc  receivedPacketFromUpperLayer:vector(packetBytes)  ETV
attr interpolationmode  none
attr source  receivedPacketFromUpperLayer
vector 656  CAIN.ueD2DTx[14].nic.pdcpRrc  sentPacketToLowerLayer:vector(packetBytes)  ETV
attr interpolationmode  none
attr source  sentPacketToLowerLayer
vector 657  CAIN.ueD2DTx[14].nic.mac  receivedPacketFromUpperLayer:vector(packetBytes)  ETV
attr interpolationmode  none
attr source  receivedPacketFromUpperLayer
vector 667  CAIN.ueD2DTx[14].nic.mac  CainHopMessageSent:vector  ETV
attr interpolationmode  none
attr title  "# of Sent CAIN hop message, vector"
vector 660  CAIN.ueD2DTx[14].nic.mac  sentPacketToLowerLayer:vector(packetBytes)  ETV
attr interpolationmode  none
attr source  sentPacketToLowerLayer
vector 1429  CAIN.ueD2DTx[12].tcp  tcpRcvQueueBytes  ETV
vector 1416  CAIN.ueD2DTx[12].tcp  "advertised window"  ETV
vector 1415  CAIN.ueD2DTx[12].tcp  "receive window"  ETV
vector 1418  CAIN.ueD2DTx[12].tcp  "sent ack"  ETV
vector 589  CAIN.ueD2DTx[12].nic.pdcpRrc  receivedPacketFromUpperLayer:vector(packetBytes)  ETV
attr interpolationmode  none
attr source  receivedPacketFromUpperLayer
vector 592  CAIN.ueD2DTx[12].nic.pdcpRrc  sentPacketToLowerLayer:vector(packetBytes)  ETV
attr interpolationmode  none
attr source  sentPacketToLowerLayer
vector 593  CAIN.ueD2DTx[12].nic.mac  receivedPacketFromUpperLayer:vector(packetBytes)  ETV
attr interpolationmode  none
attr source  receivedPacketFromUpperLayer
vector 603  CAIN.ueD2DTx[12].nic.mac  CainHopMessageSent:vector  ETV
attr interpolationmode  none
attr title  "# of Sent CAIN hop message, vector"
vector 596  CAIN.ueD2DTx[12].nic.mac  sentPacketToLowerLayer:vector(packetBytes)  ETV
attr interpolationmode  none
attr source  sentPacketToLowerLayer
vector 1453  CAIN.ueD2DTx[2].tcp  tcpRcvQueueBytes  ETV
vector 1440  CAIN.ueD2DTx[2].tcp  "advertised window"  ETV
vector 1439  CAIN.ueD2DTx[2].tcp  "receive window"  ETV
vector 1442  CAIN.ueD2DTx[2].tcp  "sent ack"  ETV
vector 269  CAIN.ueD2DTx[2].nic.pdcpRrc  receivedPacketFromUpperLayer:vector(packetBytes)  ETV
attr interpolationmode  none
attr source  receivedPacketFromUpperLayer
vector 272  CAIN.ueD2DTx[2].nic.pdcpRrc  sentPacketToLowerLayer:vector(packetBytes)  ETV
attr interpolationmode  none
attr source  sentPacketToLowerLayer
vector 273  CAIN.ueD2DTx[2].nic.mac  receivedPacketFromUpperLayer:vector(packetBytes)  ETV
attr interpolationmode  none
attr source  receivedPacketFromUpperLayer
vector 282  CAIN.ueD2DTx[2].nic.mac  CainMessageSent:vector  ETV
attr interpolationmode  none
attr title  "# of Sent CAIN message, vector"
vector 818  CAIN.ueD2DTx[19].nic.mac  receivedPacketFromLowerLayer:vector(packetBytes)  ETV
attr interpolationmode  none
attr source  receivedPacketFromLowerLayer
vector 820  CAIN.ueD2DTx[19].nic.mac  sentPacketToLowerLayer:vector(packetBytes)  ETV
attr interpolationmode  none
attr source  sentPacketToLowerLayer
vector 1477  CAIN.ueD2DTx[15].tcp  tcpRcvQueueBytes  ETV
vector 1464  CAIN.ueD2DTx[15].tcp  "advertised window"  ETV
vector 1463  CAIN.ueD2DTx[15].tcp  "receive window"  ETV
vector 1466  CAIN.ueD2DTx[15].tcp  "sent ack"  ETV
vector 685  CAIN.ueD2DTx[15].nic.pdcpRrc  receivedPacketFromUpperLayer:vector(packetBytes)  ETV
attr interpolationmode  none
attr source  receivedPacketFromUpperLayer
vector 688  CAIN.ueD2DTx[15].nic.pdcpRrc  sentPacketToLowerLayer:vector(packetBytes)  ETV
attr interpolationmode  none
attr source  sentPacketToLowerLayer
vector 689  CAIN.ueD2DTx[15].nic.mac  receivedPacketFromUpperLayer:vector(packetBytes)  ETV
attr interpolationmode  none
attr source  receivedPacketFromUpperLayer
vector 100  CAIN.eNodeB.nic.mac  CainMessage:vector  ETV
attr interpolationmode  none
attr title  "eNB received CAIN message, vector"
vector 824  CAIN.ueD2DTx[19].nic.mac  DropedCainMessage:vector  ETV
attr interpolationmode  none
attr title  "Droped CAIN message due to RB not available, vector"
vector 1501  CAIN.ueD2DTx[3].tcp  tcpRcvQueueBytes  ETV
vector 1488  CAIN.ueD2DTx[3].tcp  "advertised window"  ETV
vector 1487  CAIN.ueD2DTx[3].tcp  "receive window"  ETV
vector 1490  CAIN.ueD2DTx[3].tcp  "sent ack"  ETV
vector 301  CAIN.ueD2DTx[3].nic.pdcpRrc  receivedPacketFromUpperLayer:vector(packetBytes)  ETV
attr interpolationmode  none
attr source  receivedPacketFromUpperLayer
vector 304  CAIN.ueD2DTx[3].nic.pdcpRrc  sentPacketToLowerLayer:vector(packetBytes)  ETV
attr interpolationmode  none
attr source  sentPacketToLowerLayer
vector 305  CAIN.ueD2DTx[3].nic.mac  receivedPacketFromUpperLayer:vector(packetBytes)  ETV
attr interpolationmode  none
attr source  receivedPacketFromUpperLayer
vector 315  CAIN.ueD2DTx[3].nic.mac  CainHopMessageSent:vector  ETV
attr interpolationmode  none
attr title  "# of Sent CAIN hop message, vector"
vector 308  CAIN.ueD2DTx[3].nic.mac  sentPacketToLowerLayer:vector(packetBytes)  ETV
attr interpolationmode  none
attr source  sentPacketToLowerLayer
vector 691  CAIN.ueD2DTx[15].nic.mac  sentPacketToUpperLayer:vector(packetBytes)  ETV
attr interpolationmode  none
attr source  sentPacketToUpperLayer
vector 115  CAIN.eNodeB.nic.phy  averageCqiUlvect:vector  ETV
attr source  averageCqiUlvect
attr title  "Average Cqi reported in UL, vector"
attr unit  cqi
vector 1525  CAIN.ueD2DTx[8].tcp  tcpRcvQueueBytes  ETV
vector 1512  CAIN.ueD2DTx[8].tcp  "advertised window"  ETV
vector 1511  CAIN.ueD2DTx[8].tcp  "receive window"  ETV
vector 1514  CAIN.ueD2DTx[8].tcp  "sent ack"  ETV
vector 461  CAIN.ueD2DTx[8].nic.pdcpRrc  receivedPacketFromUpperLayer:vector(packetBytes)  ETV
attr interpolationmode  none
attr source  receivedPacketFromUpperLayer
vector 464  CAIN.ueD2DTx[8].nic.pdcpRrc  sentPacketToLowerLayer:vector(packetBytes)  ETV
attr interpolationmode  none
attr source  sentPacketToLowerLayer
vector 465  CAIN.ueD2DTx[8].nic.mac  receivedPacketFromUpperLayer:vector(packetBytes)  ETV
attr interpolationmode  none
attr source  receivedPacketFromUpperLayer
vector 468  CAIN.ueD2DTx[8].nic.mac  sentPacketToLowerLayer:vector(packetBytes)  ETV
attr interpolationmode  none
attr source  sentPacketToLowerLayer
vector 109  CAIN.eNodeB.nic.mac  ServedHopDevs:vector  ETV
attr interpolationmode  none
attr title  "# of devices served on hop forwarding, vector"
vector 97  CAIN.eNodeB.nic.mac  sentPacketToUpperLayer:vector(packetBytes)  ETV
attr interpolationmode  none
attr source  sentPacketToUpperLayer
vector 99  CAIN.eNodeB.nic.mac  measuredItbs:vector  ETV
attr source  measuredItbs
attr title  "TBS index, vector"
attr unit  ""
vector 466  CAIN.ueD2DTx[8].nic.mac  receivedPacketFromLowerLayer:vector(packetBytes)  ETV
attr interpolationmode  none
attr source  receivedPacketFromLowerLayer
vector 467  CAIN.ueD2DTx[8].nic.mac  sentPacketToUpperLayer:vector(packetBytes)  ETV
attr interpolationmode  none
attr source  sentPacketToUpperLayer
vector 1549  CAIN.ueD2DTx[11].tcp  tcpRcvQueueBytes  ETV
vector 1536  CAIN.ueD2DTx[11].tcp  "advertised window"  ETV
vector 1535  CAIN.ueD2DTx[11].tcp  "receive window"  ETV
vector 1538  CAIN.ueD2DTx[11].tcp  "sent ack"  ETV
vector 557  CAIN.ueD2DTx[11].nic.pdcpRrc  receivedPacketFromUpperLayer:vector(packetBytes)  ETV
attr interpolationmode  none
attr source  receivedPacketFromUpperLayer
vector 560  CAIN.ueD2DTx[11].nic.pdcpRrc  sentPacketToLowerLayer:vector(packetBytes)  ETV
attr interpolationmode  none
attr source  sentPacketToLowerLayer
vector 561  CAIN.ueD2DTx[11].nic.mac  receivedPacketFromUpperLayer:vector(packetBytes)  ETV
attr interpolationmode  none
attr source  receivedPacketFromUpperLayer
vector 92  CAIN.eNodeB.nic.pdcpRrc  receivedPacketFromLowerLayer:vector(packetBytes)  ETV
attr interpolationmode  none
attr source  receivedPacketFromLowerLayer
vector 93  CAIN.eNodeB.nic.pdcpRrc  sentPacketToUpperLayer:vector(packetBytes)  ETV
attr interpolationmode  none
attr source  sentPacketToUpperLayer
vector 86  CAIN.eNodeB.udp  sentPk:vector(packetBytes)  ETV
attr interpolationmode  none
attr source  sentPk
attr title  "packets sent, vector(packetBytes)"
vector 145  CAIN.eNodeB1.udp  rcvdPk:vector(packetBytes)  ETV
attr interpolationmode  none
attr source  rcvdPk
attr title  "packets received, vector(packetBytes)"
vector 146  CAIN.eNodeB1.udp  passedUpPk:vector(count)  ETV
attr interpolationmode  none
attr title  "packets passed up, vector(count)"
vector 563  CAIN.ueD2DTx[11].nic.mac  sentPacketToUpperLayer:vector(packetBytes)  ETV
attr interpolationmode  none
attr source  sentPacketToUpperLayer
vector 1573  CAIN.ueD2DTx[7].tcp  tcpRcvQueueBytes  ETV
vector 1560  CAIN.ueD2DTx[7].tcp  "advertised window"  ETV
vector 1559  CAIN.ueD2DTx[7].tcp  "receive window"  ETV
vector 1562  CAIN.ueD2DTx[7].tcp  "sent ack"  ETV
vector 429  CAIN.ueD2DTx[7].nic.pdcpRrc  receivedPacketFromUpperLayer:vector(packetBytes)  ETV
attr interpolationmode  none
attr source  receivedPacketFromUpperLayer
vector 432  CAIN.ueD2DTx[7].nic.pdcpRrc  sentPacketToLowerLayer:vector(packetBytes)  ETV
attr interpolationmode  none
attr source  sentPacketToLowerLayer
vector 433  CAIN.ueD2DTx[7].nic.mac  receivedPacketFromUpperLayer:vector(packetBytes)  ETV
attr interpolationmode  none
attr source  receivedPacketFromUpperLayer
vector 436  CAIN.ueD2DTx[7].nic.mac  sentPacketToLowerLayer:vector(packetBytes)  ETV
attr interpolationmode  none
attr source  sentPacketToLowerLayer
vector 149  CAIN.eNodeB1.nic.pdcpRrc  receivedPacketFromUpperLayer:vector(packetBytes)  ETV
attr interpolationmode  none
attr source  receivedPacketFromUpperLayer
vector 152  CAIN.eNodeB1.nic.pdcpRrc  sentPacketToLowerLayer:vector(packetBytes)  ETV
attr interpolationmode  none
attr source  sentPacketToLowerLayer
vector 1301  CAIN.eNodeB1.sctp  "SendQueue of Association 5"  ETV
vector 1065  CAIN.eNodeB1.sctp  "TSN Sent 5:10.0.5.1"  ETV
vector 1072  CAIN.eNodeB1.sctp  "Outstanding Bytes 5:10.0.5.1"  ETV
vector 870  CAIN.eNodeB1.sctp  "Outstanding Bytes 4:Total"  ETV
vector 1071  CAIN.eNodeB1.sctp  "Queued Sent Bytes 5:10.0.5.1"  ETV
vector 869  CAIN.eNodeB1.sctp  "Queued Sent Bytes 4:Total"  ETV
vector 153  CAIN.eNodeB1.nic.mac  receivedPacketFromUpperLayer:vector(packetBytes)  ETV
attr interpolationmode  none
attr source  receivedPacketFromUpperLayer
vector 914  CAIN.eNodeB.sctp  "TSN Received 1:10.0.5.2"  ETV
vector 890  CAIN.eNodeB.sctp  "Queued Received Bytes 1:Total"  ETV
vector 886  CAIN.eNodeB.sctp  "Advertised Receiver Window 1"  ETV
vector 895  CAIN.eNodeB.sctp  "Number of Total Gap Blocks Stored 1"  ETV
vector 896  CAIN.eNodeB.sctp  "Number of Revokable Gap Blocks Stored 1"  ETV
vector 897  CAIN.eNodeB.sctp  "Number of Non-Revokable Gap Blocks Stored 1"  ETV
vector 898  CAIN.eNodeB.sctp  "Number of Duplicate TSNs Stored 1"  ETV
vector 902  CAIN.eNodeB.sctp  "Length of SACK Sent 1"  ETV
vector 899  CAIN.eNodeB.sctp  "Number of Revokable Gap Blocks Sent 1"  ETV
vector 900  CAIN.eNodeB.sctp  "Number of Non-Revokable Gap Blocks Sent 1"  ETV
vector 901  CAIN.eNodeB.sctp  "Number of Duplicate TSNs Sent 1"  ETV
vector 906  CAIN.eNodeB.sctp  "End to End Delay of Association 1"  ETV
vector 141  CAIN.eNodeB.x2App[0].client  rcvdPk:vector(packetBytes)  ETV
attr interpolationmode  none
attr source  rcvdPk
attr title  "packets received, vector(packetBytes)"
vector 1300  CAIN.eNodeB1.sctp  "Number of Gap Blocks in Last SACK of Association 5"  ETV
vector 871  CAIN.eNodeB1.sctp  "Number of Revokable Gap Blocks in SACK 4"  ETV
vector 872  CAIN.eNodeB1.sctp  "Number of Non-Revokable Gap Blocks in SACK 4"  ETV
vector 1082  CAIN.eNodeB1.sctp  "TSN Acked CumAck 5:10.0.5.1"  ETV
vector 1048  CAIN.eNodeB1.sctp  "Number of Gap Acked Chunks in Last SACK 5:10.0.2.2"  ETV
vector 1049  CAIN.eNodeB1.sctp  "Number of Non-Revokable Gap Acked Chunks in Last SACK 5:10.0.2.2"  ETV
vector 1050  CAIN.eNodeB1.sctp  "Number of Gap Missed Chunks in Last SACK 5:10.0.2.2"  ETV
vector 1021  CAIN.eNodeB1.sctp  "Number of Gap Acked Chunks in Last SACK 5:10.0.4.1"  ETV
vector 1022  CAIN.eNodeB1.sctp  "Number of Non-Revokable Gap Acked Chunks in Last SACK 5:10.0.4.1"  ETV
vector 1023  CAIN.eNodeB1.sctp  "Number of Gap Missed Chunks in Last SACK 5:10.0.4.1"  ETV
vector 1075  CAIN.eNodeB1.sctp  "Number of Gap Acked Chunks in Last SACK 5:10.0.5.1"  ETV
vector 1076  CAIN.eNodeB1.sctp  "Number of Non-Revokable Gap Acked Chunks in Last SACK 5:10.0.5.1"  ETV
vector 1077  CAIN.eNodeB1.sctp  "Number of Gap Missed Chunks in Last SACK 5:10.0.5.1"  ETV
vector 881  CAIN.eNodeB1.sctp  "Arwnd in Last SACK 4"  ETV
vector 1084  CAIN.eNodeB1.sctp  "TSN PseudoCumAck 5:10.0.5.1"  ETV
vector 1085  CAIN.eNodeB1.sctp  "TSN RTXPseudoCumAck 5:10.0.5.1"  ETV
vector 1078  CAIN.eNodeB1.sctp  "Partial Bytes Acked 5:10.0.5.1"  ETV
vector 1597  CAIN.ueD2DTx[4].tcp  tcpRcvQueueBytes  ETV
vector 1584  CAIN.ueD2DTx[4].tcp  "advertised window"  ETV
vector 1583  CAIN.ueD2DTx[4].tcp  "receive window"  ETV
vector 1586  CAIN.ueD2DTx[4].tcp  "sent ack"  ETV
vector 333  CAIN.ueD2DTx[4].nic.pdcpRrc  receivedPacketFromUpperLayer:vector(packetBytes)  ETV
attr interpolationmode  none
attr source  receivedPacketFromUpperLayer
vector 336  CAIN.ueD2DTx[4].nic.pdcpRrc  sentPacketToLowerLayer:vector(packetBytes)  ETV
attr interpolationmode  none
attr source  sentPacketToLowerLayer
vector 337  CAIN.ueD2DTx[4].nic.mac  receivedPacketFromUpperLayer:vector(packetBytes)  ETV
attr interpolationmode  none
attr source  receivedPacketFromUpperLayer
vector 347  CAIN.ueD2DTx[4].nic.mac  CainHopMessageSent:vector  ETV
attr interpolationmode  none
attr title  "# of Sent CAIN hop message, vector"
vector 340  CAIN.ueD2DTx[4].nic.mac  sentPacketToLowerLayer:vector(packetBytes)  ETV
attr interpolationmode  none
attr source  sentPacketToLowerLayer
vector 434  CAIN.ueD2DTx[7].nic.mac  receivedPacketFromLowerLayer:vector(packetBytes)  ETV
attr interpolationmode  none
attr source  receivedPacketFromLowerLayer
vector 435  CAIN.ueD2DTx[7].nic.mac  sentPacketToUpperLayer:vector(packetBytes)  ETV
attr interpolationmode  none
attr source  sentPacketToUpperLayer
vector 154  CAIN.eNodeB1.nic.mac  receivedPacketFromLowerLayer:vector(packetBytes)  ETV
attr interpolationmode  none
attr source  receivedPacketFromLowerLayer
vector 1621  CAIN.ueD2DTx[16].tcp  tcpRcvQueueBytes  ETV
vector 1608  CAIN.ueD2DTx[16].tcp  "advertised window"  ETV
vector 1607  CAIN.ueD2DTx[16].tcp  "receive window"  ETV
vector 1610  CAIN.ueD2DTx[16].tcp  "sent ack"  ETV
vector 717  CAIN.ueD2DTx[16].nic.pdcpRrc  receivedPacketFromUpperLayer:vector(packetBytes)  ETV
attr interpolationmode  none
attr source  receivedPacketFromUpperLayer
vector 720  CAIN.ueD2DTx[16].nic.pdcpRrc  sentPacketToLowerLayer:vector(packetBytes)  ETV
attr interpolationmode  none
attr source  sentPacketToLowerLayer
vector 721  CAIN.ueD2DTx[16].nic.mac  receivedPacketFromUpperLayer:vector(packetBytes)  ETV
attr interpolationmode  none
attr source  receivedPacketFromUpperLayer
vector 731  CAIN.ueD2DTx[16].nic.mac  CainHopMessageSent:vector  ETV
attr interpolationmode  none
attr title  "# of Sent CAIN hop message, vector"
vector 724  CAIN.ueD2DTx[16].nic.mac  sentPacketToLowerLayer:vector(packetBytes)  ETV
attr interpolationmode  none
attr source  sentPacketToLowerLayer
vector 1645  CAIN.ueD2DTx[1].tcp  tcpRcvQueueBytes  ETV
vector 1632  CAIN.ueD2DTx[1].tcp  "advertised window"  ETV
vector 1631  CAIN.ueD2DTx[1].tcp  "receive window"  ETV
vector 1634  CAIN.ueD2DTx[1].tcp  "sent ack"  ETV
vector 237  CAIN.ueD2DTx[1].nic.pdcpRrc  receivedPacketFromUpperLayer:vector(packetBytes)  ETV
attr interpolationmode  none
attr source  receivedPacketFromUpperLayer
vector 240  CAIN.ueD2DTx[1].nic.pdcpRrc  sentPacketToLowerLayer:vector(packetBytes)  ETV
attr interpolationmode  none
attr source  sentPacketToLowerLayer
vector 241  CAIN.ueD2DTx[1].nic.mac  receivedPacketFromUpperLayer:vector(packetBytes)  ETV
attr interpolationmode  none
attr source  receivedPacketFromUpperLayer
vector 251  CAIN.ueD2DTx[1].nic.mac  CainHopMessageSent:vector  ETV
attr interpolationmode  none
attr title  "# of Sent CAIN hop message, vector"
vector 244  CAIN.ueD2DTx[1].nic.mac  sentPacketToLowerLayer:vector(packetBytes)  ETV
attr interpolationmode  none
attr source  sentPacketToLowerLayer
vector 530  CAIN.ueD2DTx[10].nic.mac  receivedPacketFromLowerLayer:vector(packetBytes)  ETV
attr interpolationmode  none
attr source  receivedPacketFromLowerLayer
vector 532  CAIN.ueD2DTx[10].nic.mac  sentPacketToLowerLayer:vector(packetBytes)  ETV
attr interpolationmode  none
attr source  sentPacketToLowerLayer
vector 658  CAIN.ueD2DTx[14].nic.mac  receivedPacketFromLowerLayer:vector(packetBytes)  ETV
attr interpolationmode  none
attr source  receivedPacketFromLowerLayer
vector 117  CAIN.eNodeB.pppIf.queue  rcvdPk:vector(packetBytes)  ETV
attr interpolationmode  none
attr title  "received packets, vector(packetBytes)"
vector 119  CAIN.eNodeB.pppIf.queue  queueingTime:vector  ETV
attr interpolationmode  none
attr title  "queueing time, vector"
vector 126  CAIN.eNodeB.pppIf.ppp  rcvdPkFromHL:vector(packetBytes)  ETV
attr interpolationmode  none
attr source  packetReceivedFromUpper
attr title  "packets received from higher layer, vector(packetBytes)"
vector 122  CAIN.eNodeB.pppIf.ppp  txPk:vector(packetBytes)  ETV
attr interpolationmode  none
attr source  packetSentToLower
attr title  "packets transmitted, vector(packetBytes)"
vector 59  CAIN.pgw.ppp[0].ppp  rxPkOk:vector(packetBytes)  ETV
attr interpolationmode  none
attr source  rxPkOk
attr title  "packets received OK, vector(packetBytes)"
vector 63  CAIN.pgw.ppp[0].ppp  passedUpPk:vector(packetBytes)  ETV
attr interpolationmode  none
attr source  packetSentToUpper
attr title  "packets passed to higher layer, vector(packetBytes)"
vector 44  CAIN.pgw.udp  rcvdPk:vector(packetBytes)  ETV
attr interpolationmode  none
attr source  rcvdPk
attr title  "packets received, vector(packetBytes)"
vector 45  CAIN.pgw.udp  passedUpPk:vector(count)  ETV
attr interpolationmode  none
attr title  "packets passed up, vector(count)"
vector 43  CAIN.pgw.udp  sentPk:vector(packetBytes)  ETV
attr interpolationmode  none
attr source  sentPk
attr title  "packets sent, vector(packetBytes)"
vector 64  CAIN.pgw.ppp[1].queue  rcvdPk:vector(packetBytes)  ETV
attr interpolationmode  none
attr title  "received packets, vector(packetBytes)"
vector 66  CAIN.pgw.ppp[1].queue  queueingTime:vector  ETV
attr interpolationmode  none
attr title  "queueing time, vector"
vector 73  CAIN.pgw.ppp[1].ppp  rcvdPkFromHL:vector(packetBytes)  ETV
attr interpolationmode  none
attr source  packetReceivedFromUpper
attr title  "packets received from higher layer, vector(packetBytes)"
vector 69  CAIN.pgw.ppp[1].ppp  txPk:vector(packetBytes)  ETV
attr interpolationmode  none
attr source  packetSentToLower
attr title  "packets transmitted, vector(packetBytes)"
vector 181  CAIN.eNodeB1.pppIf.ppp  rxPkOk:vector(packetBytes)  ETV
attr interpolationmode  none
attr source  rxPkOk
attr title  "packets received OK, vector(packetBytes)"
vector 185  CAIN.eNodeB1.pppIf.ppp  passedUpPk:vector(packetBytes)  ETV
attr interpolationmode  none
attr source  packetSentToUpper
attr title  "packets passed to higher layer, vector(packetBytes)"
vector 1669  CAIN.ueD2DTx[9].tcp  tcpRcvQueueBytes  ETV
vector 1656  CAIN.ueD2DTx[9].tcp  "advertised window"  ETV
vector 1655  CAIN.ueD2DTx[9].tcp  "receive window"  ETV
vector 1658  CAIN.ueD2DTx[9].tcp  "sent ack"  ETV
vector 493  CAIN.ueD2DTx[9].nic.pdcpRrc  receivedPacketFromUpperLayer:vector(packetBytes)  ETV
attr interpolationmode  none
attr source  receivedPacketFromUpperLayer
vector 496  CAIN.ueD2DTx[9].nic.pdcpRrc  sentPacketToLowerLayer:vector(packetBytes)  ETV
attr interpolationmode  none
attr source  sentPacketToLowerLayer
vector 497  CAIN.ueD2DTx[9].nic.mac  receivedPacketFromUpperLayer:vector(packetBytes)  ETV
attr interpolationmode  none
attr source  receivedPacketFromUpperLayer
vector 169  CAIN.eNodeB1.nic.mac  racpkt:vector  ETV
attr interpolationmode  none
attr title  "eNB received racpkt message, vector"
vector 170  CAIN.eNodeB1.nic.mac  racDistanceSignal:vector  ETV
attr interpolationmode  none
attr title  "Rac distance to enb, vector"
vector 171  CAIN.eNodeB1.nic.mac  racServedDevsSignal:vector  ETV
attr interpolationmode  none
attr title  "# of devices served on rac arriavall, vector"
vector 156  CAIN.eNodeB1.nic.mac  sentPacketToLowerLayer:vector(packetBytes)  ETV
attr interpolationmode  none
attr source  sentPacketToLowerLayer
vector 1693  CAIN.ueD2DTx[10].tcp  tcpRcvQueueBytes  ETV
vector 1680  CAIN.ueD2DTx[10].tcp  "advertised window"  ETV
vector 1679  CAIN.ueD2DTx[10].tcp  "receive window"  ETV
vector 1682  CAIN.ueD2DTx[10].tcp  "sent ack"  ETV
vector 525  CAIN.ueD2DTx[10].nic.pdcpRrc  receivedPacketFromUpperLayer:vector(packetBytes)  ETV
attr interpolationmode  none
attr source  receivedPacketFromUpperLayer
vector 528  CAIN.ueD2DTx[10].nic.pdcpRrc  sentPacketToLowerLayer:vector(packetBytes)  ETV
attr interpolationmode  none
attr source  sentPacketToLowerLayer
vector 529  CAIN.ueD2DTx[10].nic.mac  receivedPacketFromUpperLayer:vector(packetBytes)  ETV
attr interpolationmode  none
attr source  receivedPacketFromUpperLayer
vector 538  CAIN.ueD2DTx[10].nic.mac  CainMessageSent:vector  ETV
attr interpolationmode  none
attr title  "# of Sent CAIN message, vector"
vector 1717  CAIN.ueD2DTx[17].tcp  tcpRcvQueueBytes  ETV
vector 1704  CAIN.ueD2DTx[17].tcp  "advertised window"  ETV
vector 1703  CAIN.ueD2DTx[17].tcp  "receive window"  ETV
vector 1706  CAIN.ueD2DTx[17].tcp  "sent ack"  ETV
vector 749  CAIN.ueD2DTx[17].nic.pdcpRrc  receivedPacketFromUpperLayer:vector(packetBytes)  ETV
attr interpolationmode  none
attr source  receivedPacketFromUpperLayer
vector 752  CAIN.ueD2DTx[17].nic.pdcpRrc  sentPacketToLowerLayer:vector(packetBytes)  ETV
attr interpolationmode  none
attr source  sentPacketToLowerLayer
vector 753  CAIN.ueD2DTx[17].nic.mac  receivedPacketFromUpperLayer:vector(packetBytes)  ETV
attr interpolationmode  none
attr source  receivedPacketFromUpperLayer
vector 1741  CAIN.ueD2DTx[0].tcp  tcpRcvQueueBytes  ETV
vector 1728  CAIN.ueD2DTx[0].tcp  "advertised window"  ETV
vector 1727  CAIN.ueD2DTx[0].tcp  "receive window"  ETV
vector 1730  CAIN.ueD2DTx[0].tcp  "sent ack"  ETV
vector 205  CAIN.ueD2DTx[0].nic.pdcpRrc  receivedPacketFromUpperLayer:vector(packetBytes)  ETV
attr interpolationmode  none
attr source  receivedPacketFromUpperLayer
vector 208  CAIN.ueD2DTx[0].nic.pdcpRrc  sentPacketToLowerLayer:vector(packetBytes)  ETV
attr interpolationmode  none
attr source  sentPacketToLowerLayer
vector 209  CAIN.ueD2DTx[0].nic.mac  receivedPacketFromUpperLayer:vector(packetBytes)  ETV
attr interpolationmode  none
attr source  receivedPacketFromUpperLayer
vector 212  CAIN.ueD2DTx[0].nic.mac  sentPacketToLowerLayer:vector(packetBytes)  ETV
attr interpolationmode  none
attr source  sentPacketToLowerLayer
vector 756  CAIN.ueD2DTx[17].nic.mac  sentPacketToLowerLayer:vector(packetBytes)  ETV
attr interpolationmode  none
attr source  sentPacketToLowerLayer
vector 210  CAIN.ueD2DTx[0].nic.mac  receivedPacketFromLowerLayer:vector(packetBytes)  ETV
attr interpolationmode  none
attr source  receivedPacketFromLowerLayer
vector 754  CAIN.ueD2DTx[17].nic.mac  receivedPacketFromLowerLayer:vector(packetBytes)  ETV
attr interpolationmode  none
attr source  receivedPacketFromLowerLayer
vector 1765  CAIN.ueD2DTx[19].tcp  tcpRcvQueueBytes  ETV
vector 1752  CAIN.ueD2DTx[19].tcp  "advertised window"  ETV
vector 1751  CAIN.ueD2DTx[19].tcp  "receive window"  ETV
vector 1754  CAIN.ueD2DTx[19].tcp  "sent ack"  ETV
vector 813  CAIN.ueD2DTx[19].nic.pdcpRrc  receivedPacketFromUpperLayer:vector(packetBytes)  ETV
attr interpolationmode  none
attr source  receivedPacketFromUpperLayer
vector 816  CAIN.ueD2DTx[19].nic.pdcpRrc  sentPacketToLowerLayer:vector(packetBytes)  ETV
attr interpolationmode  none
attr source  sentPacketToLowerLayer
vector 817  CAIN.ueD2DTx[19].nic.mac  receivedPacketFromUpperLayer:vector(packetBytes)  ETV
attr interpolationmode  none
attr source  receivedPacketFromUpperLayer
vector 1789  CAIN.ueD2DTx[5].tcp  tcpRcvQueueBytes  ETV
vector 1776  CAIN.ueD2DTx[5].tcp  "advertised window"  ETV
vector 1775  CAIN.ueD2DTx[5].tcp  "receive window"  ETV
vector 1778  CAIN.ueD2DTx[5].tcp  "sent ack"  ETV
vector 365  CAIN.ueD2DTx[5].nic.pdcpRrc  receivedPacketFromUpperLayer:vector(packetBytes)  ETV
attr interpolationmode  none
attr source  receivedPacketFromUpperLayer
vector 368  CAIN.ueD2DTx[5].nic.pdcpRrc  sentPacketToLowerLayer:vector(packetBytes)  ETV
attr interpolationmode  none
attr source  sentPacketToLowerLayer
vector 369  CAIN.ueD2DTx[5].nic.mac  receivedPacketFromUpperLayer:vector(packetBytes)  ETV
attr interpolationmode  none
attr source  receivedPacketFromUpperLayer
vector 379  CAIN.ueD2DTx[5].nic.mac  CainHopMessageSent:vector  ETV
attr interpolationmode  none
attr title  "# of Sent CAIN hop message, vector"
vector 372  CAIN.ueD2DTx[5].nic.mac  sentPacketToLowerLayer:vector(packetBytes)  ETV
attr interpolationmode  none
attr source  sentPacketToLowerLayer
vector 108  CAIN.eNodeB.nic.mac  ServedDevs:vector  ETV
attr interpolationmode  none
attr title  "# of devices served on cain forwarding, vector"
vector 826  CAIN.ueD2DTx[19].nic.mac  CainMessageSent:vector  ETV
attr interpolationmode  none
attr title  "# of Sent CAIN message, vector"
vector 626  CAIN.ueD2DTx[13].nic.mac  receivedPacketFromLowerLayer:vector(packetBytes)  ETV
attr interpolationmode  none
attr source  receivedPacketFromLowerLayer
vector 627  CAIN.ueD2DTx[13].nic.mac  sentPacketToUpperLayer:vector(packetBytes)  ETV
attr interpolationmode  none
attr source  sentPacketToUpperLayer
vector 173  CAIN.eNodeB1.nic.phy  averageCqiUlvect:vector  ETV
attr source  averageCqiUlvect
attr title  "Average Cqi reported in UL, vector"
attr unit  cqi
vector 157  CAIN.eNodeB1.nic.mac  measuredItbs:vector  ETV
attr source  measuredItbs
attr title  "TBS index, vector"
attr unit  ""
vector 402  CAIN.ueD2DTx[6].nic.mac  receivedPacketFromLowerLayer:vector(packetBytes)  ETV
attr interpolationmode  none
attr source  receivedPacketFromLowerLayer
vector 155  CAIN.eNodeB1.nic.mac  sentPacketToUpperLayer:vector(packetBytes)  ETV
attr interpolationmode  none
attr source  sentPacketToUpperLayer
vector 150  CAIN.eNodeB1.nic.pdcpRrc  receivedPacketFromLowerLayer:vector(packetBytes)  ETV
attr interpolationmode  none
attr source  receivedPacketFromLowerLayer
vector 151  CAIN.eNodeB1.nic.pdcpRrc  sentPacketToUpperLayer:vector(packetBytes)  ETV
attr interpolationmode  none
attr source  sentPacketToUpperLayer
vector 403  CAIN.ueD2DTx[6].nic.mac  sentPacketToUpperLayer:vector(packetBytes)  ETV
attr interpolationmode  none
attr source  sentPacketToUpperLayer
vector 594  CAIN.ueD2DTx[12].nic.mac  receivedPacketFromLowerLayer:vector(packetBytes)  ETV
attr interpolationmode  none
attr source  receivedPacketFromLowerLayer
vector 659  CAIN.ueD2DTx[14].nic.mac  sentPacketToUpperLayer:vector(packetBytes)  ETV
attr interpolationmode  none
attr source  sentPacketToUpperLayer
vector 595  CAIN.ueD2DTx[12].nic.mac  sentPacketToUpperLayer:vector(packetBytes)  ETV
attr interpolationmode  none
attr source  sentPacketToUpperLayer
vector 314  CAIN.ueD2DTx[3].nic.mac  CainMessageSent:vector  ETV
attr interpolationmode  none
attr title  "# of Sent CAIN message, vector"
vector 499  CAIN.ueD2DTx[9].nic.mac  sentPacketToUpperLayer:vector(packetBytes)  ETV
attr interpolationmode  none
attr source  sentPacketToUpperLayer
vector 755  CAIN.ueD2DTx[17].nic.mac  sentPacketToUpperLayer:vector(packetBytes)  ETV
attr interpolationmode  none
attr source  sentPacketToUpperLayer
8	0	0	0
9	0	0	0
24	0	0	0
25	0	0	0
35	0	0	0
36	0	0	0
43	4443	0.0700001132	52
43	156179	3.0490001132	52
43	156554	3.0550001132	52
43	157477	3.0700001132	52
44	4441	0.0700001132	52
44	156177	3.0490001132	52
44	156552	3.0550001132	52
44	157475	3.0700001132	52
45	4441	0.0700001132	1
45	156177	3.0490001132	2
45	156552	3.0550001132	3
45	157475	3.0700001132	4
56	0	0	0
57	0	0	0
59	4439	0.0700001132	79
59	156175	3.0490001132	79
59	156550	3.0550001132	79
59	157473	3.0700001132	79
63	4439	0.0700001132	72
63	156175	3.0490001132	72
63	156550	3.0550001132	72
63	157473	3.0700001132	72
64	4445	0.0700001132	72
64	156181	3.0490001132	72
64	156556	3.0550001132	72
64	157479	3.0700001132	72
66	4445	0.0700001132	0
66	156181	3.0490001132	0
66	156556	3.0550001132	0
66	157479	3.0700001132	0
67	0	0	0
68	0	0	0
68	4446	0.0700001132	1
68	4447	0.0700001764	0
68	156182	3.0490001132	1
68	156183	3.0490001764	0
68	156557	3.0550001132	1
68	156558	3.0550001764	0
68	157480	3.0700001132	1
68	157481	3.0700001764	0
69	4446	0.0700001132	79
69	156182	3.0490001132	79
69	156557	3.0550001132	79
69	157480	3.0700001132	79
73	4446	0.0700001132	72
73	156182	3.0490001132	72
73	156557	3.0550001132	72
73	157480	3.0700001132	72
78	0	0	0
79	0	0	0
86	2919	0.049	52
86	3341	0.055	52
86	4397	0.07	52
86	156127	3.049	52
86	156508	3.055	52
86	157425	3.07	52
92	2912	0.049	45
92	3334	0.055	45
92	4393	0.07	45
92	156123	3.049	45
92	156504	3.055	45
92	157421	3.07	45
93	2912	0.049	44
93	3334	0.055	44
93	4393	0.07	44
93	156123	3.049	44
93	156504	3.055	44
93	157421	3.07	44
96	378	0.002	0
96	381	0.002	0
96	384	0.002	0
96	387	0.002	0
96	390	0.002	0
96	393	0.002	0
96	396	0.002	0
96	399	0.002	0
96	402	0.002	0
96	405	0.002	0
96	408	0.002	0
96	411	0.002	0
96	414	0.002	0
96	417	0.002	0
96	420	0.002	0
96	423	0.002	0
96	426	0.002	0
96	429	0.002	0
96	432	0.002	0
96	435	0.002	0
96	739	0.008	0
96	742	0.008	0
96	745	0.008	0
96	748	0.008	0
96	751	0.008	0
96	754	0.008	0
96	757	0.008	0
96	760	0.008	0
96	983	0.014	0
96	986	0.014	0
96	989	0.014	0
96	992	0.014	0
96	995	0.014	0
96	998	0.014	0
96	1001	0.014	0
96	1004	0.014	0
96	1242	0.02	0
96	1245	0.02	0
96	1248	0.02	0
96	1251	0.02	0
96	1254	0.02	0
96	1257	0.02	0
96	1260	0.02	0
96	1263	0.02	0
96	1266	0.02	0
96	1489	0.025	0
96	1492	0.025	0
96	1519	0.026	0
96	1522	0.026	0
96	1525	0.026	0
96	1528	0.026	0
96	1531	0.026	0
96	1534	0.026	0
96	1537	0.026	0
96	1540	0.026	0
96	1719	0.03	0
96	1722	0.03	0
96	1725	0.03	0
96	1811	0.031	0
96	1847	0.032	0
96	1850	0.032	0
96	1853	0.032	0
96	1856	0.032	0
96	1859	0.032	0
96	1862	0.032	0
96	1865	0.032	0
96	1868	0.032	0
96	1871	0.032	0
96	1997	0.035	0
96	2003	0.035	0
96	2006	0.035	0
96	2009	0.035	0
96	2056	0.036	0
96	2064	0.036	0
96	2168	0.037	0
96	2199	0.038	0
96	2202	0.038	0
96	2205	0.038	0
96	2208	0.038	0
96	2211	0.038	0
96	2214	0.038	0
96	2217	0.038	0
96	2220	0.038	0
96	2316	0.04	0
96	2318	0.04	0
96	2324	0.04	0
96	2327	0.04	0
96	2330	0.04	0
96	2333	0.04	0
96	2369	0.041	0
96	2377	0.041	0
96	2438	0.042	0
96	2443	0.042	0
96	2448	0.042	0
96	2586	0.044	0
96	2589	0.044	0
96	2592	0.044	0
96	2595	0.044	0
96	2598	0.044	0
96	2601	0.044	0
96	2604	0.044	0
96	2607	0.044	0
96	2673	0.045	0
96	2675	0.045	0
96	2681	0.045	0
96	2684	0.045	0
96	2687	0.045	0
96	2690	0.045	0
96	2718	0.046	0
96	2720	0.046	0
96	2727	0.046	0
96	2766	0.047	0
96	2769	0.047	0
96	3011	0.05	0
96	3014	0.05	0
96	3017	0.05	0
96	3020	0.05	0
96	3023	0.05	0
96	3026	0.05	0
96	3029	0.05	0
96	3032	0.05	0
96	3041	0.05	0
96	3047	0.05	0
96	3053	0.05	0
96	3056	0.05	0
96	3059	0.05	0
96	3062	0.05	0
96	3096	0.051	0
96	3105	0.051	0
96	3146	0.052	0
96	3148	0.052	0
96	3201	0.053	0
96	3259	0.054	0
96	3273	0.054	0
96	3373	0.055	0
96	3379	0.055	0
96	3385	0.055	0
96	3388	0.055	0
96	3391	0.055	0
96	3394	0.055	0
96	3439	0.056	0
96	3442	0.056	0
96	3445	0.056	0
96	3448	0.056	0
96	3451	0.056	0
96	3454	0.056	0
96	3457	0.056	0
96	3460	0.056	0
96	3472	0.056	0
96	3573	0.057	0
96	3583	0.057	0
96	3790	0.06	0
96	3796	0.06	0
96	3844	0.061	0
96	3848	0.061	0
96	3881	0.062	0
96	3884	0.062	0
96	3895	0.062	0
96	3898	0.062	0
96	3913	0.062	0
96	3916	0.062	0
96	3921	0.062	0
96	3924	0.062	0
96	3927	0.062	0
96	3933	0.062	0
96	4014	0.063	0
96	4105	0.065	0
96	4108	0.065	0
96	4164	0.066	0
96	4219	0.067	0
96	4225	0.067	0
96	4254	0.068	0
96	4257	0.068	0
96	4268	0.068	0
96	4271	0.068	0
96	4286	0.068	0
96	4289	0.068	0
96	4294	0.068	0
96	4297	0.068	0
96	4303	0.068	0
96	4433	0.07	0
96	4437	0.07	0
96	4590	0.073	0
96	4620	0.074	0
96	4623	0.074	0
96	4634	0.074	0
96	4637	0.074	0
96	4652	0.074	0
96	4655	0.074	0
96	4660	0.074	0
96	4663	0.074	0
96	4751	0.075	0
96	4755	0.075	0
96	4866	0.078	0
96	4959	0.08	0
96	4962	0.08	0
96	4973	0.08	0
96	4976	0.08	0
96	4991	0.08	0
96	4994	0.08	0
96	4999	0.08	0
96	5002	0.08	0
96	5008	0.08	0
96	5012	0.08	0
96	5165	0.083	0
96	5273	0.085	0
96	5278	0.085	0
96	5306	0.086	0
96	5309	0.086	0
96	5320	0.086	0
96	5323	0.086	0
96	5338	0.086	0
96	5341	0.086	0
96	5346	0.086	0
96	5349	0.086	0
96	5465	0.088	0
96	5574	0.09	0
96	5578	0.09	0
96	5663	0.092	0
96	5666	0.092	0
96	5677	0.092	0
96	5680	0.092	0
96	5695	0.092	0
96	5698	0.092	0
96	5703	0.092	0
96	5706	0.092	0
96	5789	0.093	0
96	5854	0.095	0
96	5858	0.095	0
96	6006	0.098	0
96	6009	0.098	0
96	6020	0.098	0
96	6023	0.098	0
96	6038	0.098	0
96	6041	0.098	0
96	6046	0.098	0
96	6049	0.098	0
96	6058	0.098	0
96	6061	0.098	0
96	6198	0.1	0
96	6203	0.1	0
96	6286	0.102	0
96	6292	0.102	0
96	6342	0.103	0
96	6345	0.103	0
96	6376	0.104	0
96	6379	0.104	0
96	6390	0.104	0
96	6393	0.104	0
96	6408	0.104	0
96	6411	0.104	0
96	6416	0.104	0
96	6419	0.104	0
96	6512	0.105	0
96	6516	0.105	0
96	6581	0.107	0
96	6587	0.107	0
96	6637	0.108	0
96	6640	0.108	0
96	6728	0.11	0
96	6731	0.11	0
96	6742	0.11	0
96	6745	0.11	0
96	6760	0.11	0
96	6763	0.11	0
96	6768	0.11	0
96	6771	0.11	0
96	6779	0.11	0
96	6783	0.11	0
96	6848	0.112	0
96	6854	0.112	0
96	6884	0.113	0
96	6887	0.113	0
96	6998	0.115	0
96	7002	0.115	0
96	7032	0.116	0
96	7035	0.116	0
96	7046	0.116	0
96	7049	0.116	0
96	7064	0.116	0
96	7067	0.116	0
96	7072	0.116	0
96	7075	0.116	0
96	7115	0.117	0
96	7121	0.117	0
96	7151	0.118	0
96	7154	0.118	0
96	7245	0.12	0
96	7249	0.12	0
96	7336	0.122	0
96	7339	0.122	0
96	7350	0.122	0
96	7353	0.122	0
96	7368	0.122	0
96	7371	0.122	0
96	7376	0.122	0
96	7379	0.122	0
96	7382	0.122	0
96	7388	0.122	0
96	7421	0.123	0
96	7455	0.124	0
96	7490	0.125	0
96	7497	0.125	0
96	7554	0.126	0
96	7606	0.127	0
96	7635	0.128	0
96	7638	0.128	0
96	7649	0.128	0
96	7652	0.128	0
96	7667	0.128	0
96	7670	0.128	0
96	7675	0.128	0
96	7678	0.128	0
96	7687	0.128	0
96	7721	0.129	0
96	7755	0.13	0
96	7762	0.13	0
96	7797	0.131	0
96	7849	0.132	0
96	7899	0.133	0
96	7902	0.133	0
96	7933	0.134	0
96	7936	0.134	0
96	7947	0.134	0
96	7950	0.134	0
96	7965	0.134	0
96	7968	0.134	0
96	7973	0.134	0
96	7976	0.134	0
96	8020	0.135	0
96	8024	0.135	0
96	8087	0.137	0
96	8093	0.137	0
96	8143	0.138	0
96	8146	0.138	0
96	8234	0.14	0
96	8237	0.14	0
96	8248	0.14	0
96	8251	0.14	0
96	8266	0.14	0
96	8269	0.14	0
96	8274	0.14	0
96	8277	0.14	0
96	8285	0.14	0
96	8289	0.14	0
96	8354	0.142	0
96	8360	0.142	0
96	8390	0.143	0
96	8393	0.143	0
96	8504	0.145	0
96	8508	0.145	0
96	8538	0.146	0
96	8541	0.146	0
96	8552	0.146	0
96	8555	0.146	0
96	8570	0.146	0
96	8573	0.146	0
96	8578	0.146	0
96	8581	0.146	0
96	8621	0.147	0
96	8627	0.147	0
96	8657	0.148	0
96	8660	0.148	0
96	8751	0.15	0
96	8755	0.15	0
96	8842	0.152	0
96	8845	0.152	0
96	8856	0.152	0
96	8859	0.152	0
96	8874	0.152	0
96	8877	0.152	0
96	8882	0.152	0
96	8885	0.152	0
96	8888	0.152	0
96	8894	0.152	0
96	8927	0.153	0
96	8961	0.154	0
96	8996	0.155	0
96	9003	0.155	0
96	9060	0.156	0
96	9112	0.157	0
96	9141	0.158	0
96	9144	0.158	0
96	9155	0.158	0
96	9158	0.158	0
96	9173	0.158	0
96	9176	0.158	0
96	9181	0.158	0
96	9184	0.158	0
96	9193	0.158	0
96	9227	0.159	0
96	9261	0.16	0
96	9268	0.16	0
96	9303	0.161	0
96	9355	0.162	0
96	9405	0.163	0
96	9408	0.163	0
96	9439	0.164	0
96	9442	0.164	0
96	9453	0.164	0
96	9456	0.164	0
96	9471	0.164	0
96	9474	0.164	0
96	9479	0.164	0
96	9482	0.164	0
96	9526	0.165	0
96	9530	0.165	0
96	9593	0.167	0
96	9599	0.167	0
96	9649	0.168	0
96	9652	0.168	0
96	9740	0.17	0
96	9743	0.17	0
96	9754	0.17	0
96	9757	0.17	0
96	9772	0.17	0
96	9775	0.17	0
96	9780	0.17	0
96	9783	0.17	0
96	9791	0.17	0
96	9795	0.17	0
96	9860	0.172	0
96	9866	0.172	0
96	9896	0.173	0
96	9899	0.173	0
96	10010	0.175	0
96	10014	0.175	0
96	10044	0.176	0
96	10047	0.176	0
96	10058	0.176	0
96	10061	0.176	0
96	10076	0.176	0
96	10079	0.176	0
96	10084	0.176	0
96	10087	0.176	0
96	10127	0.177	0
96	10133	0.177	0
96	10163	0.178	0
96	10166	0.178	0
96	10257	0.18	0
96	10261	0.18	0
96	10348	0.182	0
96	10351	0.182	0
96	10362	0.182	0
96	10365	0.182	0
96	10380	0.182	0
96	10383	0.182	0
96	10388	0.182	0
96	10391	0.182	0
96	10394	0.182	0
96	10400	0.182	0
96	10433	0.183	0
96	10467	0.184	0
96	10502	0.185	0
96	10509	0.185	0
96	10566	0.186	0
96	10618	0.187	0
96	10647	0.188	0
96	10650	0.188	0
96	10661	0.188	0
96	10664	0.188	0
96	10679	0.188	0
96	10682	0.188	0
96	10687	0.188	0
96	10690	0.188	0
96	10699	0.188	0
96	10733	0.189	0
96	10767	0.19	0
96	10774	0.19	0
96	10809	0.191	0
96	10861	0.192	0
96	10911	0.193	0
96	10914	0.193	0
96	10945	0.194	0
96	10948	0.194	0
96	10959	0.194	0
96	10962	0.194	0
96	10977	0.194	0
96	10980	0.194	0
96	10985	0.194	0
96	10988	0.194	0
96	11032	0.195	0
96	11036	0.195	0
96	11099	0.197	0
96	11105	0.197	0
96	11155	0.198	0
96	11158	0.198	0
96	11262	0.2	0
96	11265	0.2	0
96	11276	0.2	0
96	11279	0.2	0
96	11294	0.2	0
96	11297	0.2	0
96	11302	0.2	0
96	11305	0.2	0
96	11313	0.2	0
96	11317	0.2	0
96	11382	0.202	0
96	11388	0.202	0
96	11418	0.203	0
96	11421	0.203	0
96	11532	0.205	0
96	11536	0.205	0
96	11566	0.206	0
96	11569	0.206	0
96	11580	0.206	0
96	11583	0.206	0
96	11598	0.206	0
96	11601	0.206	0
96	11606	0.206	0
96	11609	0.206	0
96	11649	0.207	0
96	11655	0.207	0
96	12180	0.208	0
96	12183	0.208	0
96	12274	0.21	0
96	12278	0.21	0
96	12365	0.212	0
96	12368	0.212	0
96	12379	0.212	0
96	12382	0.212	0
96	12397	0.212	0
96	12400	0.212	0
96	12405	0.212	0
96	12408	0.212	0
96	12411	0.212	0
96	12417	0.212	0
96	12450	0.213	0
96	12484	0.214	0
96	12519	0.215	0
96	12526	0.215	0
96	12583	0.216	0
96	12635	0.217	0
96	12664	0.218	0
96	12667	0.218	0
96	12678	0.218	0
96	12681	0.218	0
96	12696	0.218	0
96	12699	0.218	0
96	12704	0.218	0
96	12707	0.218	0
96	12716	0.218	0
96	12750	0.219	0
96	12784	0.22	0
96	12791	0.22	0
96	12826	0.221	0
96	12878	0.222	0
96	12928	0.223	0
96	12931	0.223	0
96	12962	0.224	0
96	12965	0.224	0
96	12976	0.224	0
96	12979	0.224	0
96	12994	0.224	0
96	12997	0.224	0
96	13002	0.224	0
96	13005	0.224	0
96	13049	0.225	0
96	13053	0.225	0
96	13116	0.227	0
96	13122	0.227	0
96	13172	0.228	0
96	13175	0.228	0
96	13263	0.23	0
96	13266	0.23	0
96	13277	0.23	0
96	13280	0.23	0
96	13295	0.23	0
96	13298	0.23	0
96	13303	0.23	0
96	13306	0.23	0
96	13314	0.23	0
96	13318	0.23	0
96	13383	0.232	0
96	13389	0.232	0
96	13419	0.233	0
96	13422	0.233	0
96	13533	0.235	0
96	13537	0.235	0
96	13567	0.236	0
96	13570	0.236	0
96	13581	0.236	0
96	13584	0.236	0
96	13599	0.236	0
96	13602	0.236	0
96	13607	0.236	0
96	13610	0.236	0
96	13650	0.237	0
96	13656	0.237	0
96	13686	0.238	0
96	13689	0.238	0
96	13780	0.24	0
96	13784	0.24	0
96	13871	0.242	0
96	13874	0.242	0
96	13885	0.242	0
96	13888	0.242	0
96	13903	0.242	0
96	13906	0.242	0
96	13911	0.242	0
96	13914	0.242	0
96	13917	0.242	0
96	13923	0.242	0
96	13956	0.243	0
96	13990	0.244	0
96	14025	0.245	0
96	14032	0.245	0
96	14089	0.246	0
96	14141	0.247	0
96	14170	0.248	0
96	14173	0.248	0
96	14184	0.248	0
96	14187	0.248	0
96	14202	0.248	0
96	14205	0.248	0
96	14210	0.248	0
96	14213	0.248	0
96	14222	0.248	0
96	14256	0.249	0
96	14290	0.25	0
96	14297	0.25	0
96	14332	0.251	0
96	14384	0.252	0
96	14434	0.253	0
96	14437	0.253	0
96	14468	0.254	0
96	14471	0.254	0
96	14482	0.254	0
96	14485	0.254	0
96	14500	0.254	0
96	14503	0.254	0
96	14508	0.254	0
96	14511	0.254	0
96	14555	0.255	0
96	14559	0.255	0
96	14622	0.257	0
96	14628	0.257	0
96	15173	0.258	0
96	15176	0.258	0
96	15264	0.26	0
96	15267	0.26	0
96	15278	0.26	0
96	15281	0.26	0
96	15296	0.26	0
96	15299	0.26	0
96	15304	0.26	0
96	15307	0.26	0
96	15315	0.26	0
96	15319	0.26	0
96	15384	0.262	0
96	15390	0.262	0
96	15420	0.263	0
96	15423	0.263	0
96	15534	0.265	0
96	15538	0.265	0
96	15568	0.266	0
96	15571	0.266	0
96	15582	0.266	0
96	15585	0.266	0
96	15600	0.266	0
96	15603	0.266	0
96	15608	0.266	0
96	15611	0.266	0
96	15651	0.267	0
96	15657	0.267	0
96	15687	0.268	0
96	15690	0.268	0
96	15781	0.27	0
96	15785	0.27	0
96	15872	0.272	0
96	15875	0.272	0
96	15886	0.272	0
96	15889	0.272	0
96	15904	0.272	0
96	15907	0.272	0
96	15912	0.272	0
96	15915	0.272	0
96	15918	0.272	0
96	15924	0.272	0
96	15957	0.273	0
96	15991	0.274	0
96	16026	0.275	0
96	16033	0.275	0
96	16090	0.276	0
96	16142	0.277	0
96	16171	0.278	0
96	16174	0.278	0
96	16185	0.278	0
96	16188	0.278	0
96	16203	0.278	0
96	16206	0.278	0
96	16211	0.278	0
96	16214	0.278	0
96	16223	0.278	0
96	16257	0.279	0
96	16291	0.28	0
96	16298	0.28	0
96	16333	0.281	0
96	16385	0.282	0
96	16435	0.283	0
96	16438	0.283	0
96	16469	0.284	0
96	16472	0.284	0
96	16483	0.284	0
96	16486	0.284	0
96	16501	0.284	0
96	16504	0.284	0
96	16509	0.284	0
96	16512	0.284	0
96	16556	0.285	0
96	16560	0.285	0
96	16623	0.287	0
96	16629	0.287	0
96	16679	0.288	0
96	16682	0.288	0
96	16770	0.29	0
96	16773	0.29	0
96	16784	0.29	0
96	16787	0.29	0
96	16802	0.29	0
96	16805	0.29	0
96	16810	0.29	0
96	16813	0.29	0
96	16821	0.29	0
96	16825	0.29	0
96	16890	0.292	0
96	16896	0.292	0
96	16926	0.293	0
96	16929	0.293	0
96	17040	0.295	0
96	17044	0.295	0
96	17074	0.296	0
96	17077	0.296	0
96	17088	0.296	0
96	17091	0.296	0
96	17106	0.296	0
96	17109	0.296	0
96	17114	0.296	0
96	17117	0.296	0
96	17157	0.297	0
96	17163	0.297	0
96	17193	0.298	0
96	17196	0.298	0
96	17303	0.3	0
96	17307	0.3	0
96	17394	0.302	0
96	17397	0.302	0
96	17408	0.302	0
96	17411	0.302	0
96	17426	0.302	0
96	17429	0.302	0
96	17434	0.302	0
96	17437	0.302	0
96	17440	0.302	0
96	17446	0.302	0
96	17479	0.303	0
96	17513	0.304	0
96	17548	0.305	0
96	17555	0.305	0
96	17612	0.306	0
96	17664	0.307	0
96	17693	0.308	0
96	17696	0.308	0
96	17707	0.308	0
96	17710	0.308	0
96	17725	0.308	0
96	17728	0.308	0
96	17733	0.308	0
96	17736	0.308	0
96	17745	0.308	0
96	17779	0.309	0
96	17813	0.31	0
96	17820	0.31	0
96	17855	0.311	0
96	17907	0.312	0
96	17957	0.313	0
96	17960	0.313	0
96	17991	0.314	0
96	17994	0.314	0
96	18005	0.314	0
96	18008	0.314	0
96	18023	0.314	0
96	18026	0.314	0
96	18031	0.314	0
96	18034	0.314	0
96	18078	0.315	0
96	18082	0.315	0
96	18145	0.317	0
96	18151	0.317	0
96	18201	0.318	0
96	18204	0.318	0
96	18292	0.32	0
96	18295	0.32	0
96	18306	0.32	0
96	18309	0.32	0
96	18324	0.32	0
96	18327	0.32	0
96	18332	0.32	0
96	18335	0.32	0
96	18343	0.32	0
96	18347	0.32	0
96	18412	0.322	0
96	18418	0.322	0
96	18448	0.323	0
96	18451	0.323	0
96	18562	0.325	0
96	18566	0.325	0
96	18596	0.326	0
96	18599	0.326	0
96	18610	0.326	0
96	18613	0.326	0
96	18628	0.326	0
96	18631	0.326	0
96	18636	0.326	0
96	18639	0.326	0
96	18679	0.327	0
96	18685	0.327	0
96	18715	0.328	0
96	18718	0.328	0
96	18809	0.33	0
96	18813	0.33	0
96	18900	0.332	0
96	18903	0.332	0
96	18914	0.332	0
96	18917	0.332	0
96	18932	0.332	0
96	18935	0.332	0
96	18940	0.332	0
96	18943	0.332	0
96	18946	0.332	0
96	18952	0.332	0
96	18985	0.333	0
96	19019	0.334	0
96	19054	0.335	0
96	19061	0.335	0
96	19118	0.336	0
96	19170	0.337	0
96	19199	0.338	0
96	19202	0.338	0
96	19213	0.338	0
96	19216	0.338	0
96	19231	0.338	0
96	19234	0.338	0
96	19239	0.338	0
96	19242	0.338	0
96	19251	0.338	0
96	19285	0.339	0
96	19319	0.34	0
96	19326	0.34	0
96	19361	0.341	0
96	19413	0.342	0
96	19463	0.343	0
96	19466	0.343	0
96	19497	0.344	0
96	19500	0.344	0
96	19511	0.344	0
96	19514	0.344	0
96	19529	0.344	0
96	19532	0.344	0
96	19537	0.344	0
96	19540	0.344	0
96	19584	0.345	0
96	19588	0.345	0
96	19651	0.347	0
96	19657	0.347	0
96	19707	0.348	0
96	19710	0.348	0
96	19798	0.35	0
96	19801	0.35	0
96	19812	0.35	0
96	19815	0.35	0
96	19830	0.35	0
96	19833	0.35	0
96	19838	0.35	0
96	19841	0.35	0
96	19849	0.35	0
96	19853	0.35	0
96	19918	0.352	0
96	19924	0.352	0
96	19954	0.353	0
96	19957	0.353	0
96	20068	0.355	0
96	20072	0.355	0
96	20102	0.356	0
96	20105	0.356	0
96	20116	0.356	0
96	20119	0.356	0
96	20134	0.356	0
96	20137	0.356	0
96	20142	0.356	0
96	20145	0.356	0
96	20185	0.357	0
96	20191	0.357	0
96	20221	0.358	0
96	20224	0.358	0
96	20315	0.36	0
96	20319	0.36	0
96	20406	0.362	0
96	20409	0.362	0
96	20420	0.362	0
96	20423	0.362	0
96	20438	0.362	0
96	20441	0.362	0
96	20446	0.362	0
96	20449	0.362	0
96	20452	0.362	0
96	20458	0.362	0
96	20491	0.363	0
96	20525	0.364	0
96	20560	0.365	0
96	20567	0.365	0
96	20624	0.366	0
96	20676	0.367	0
96	20705	0.368	0
96	20708	0.368	0
96	20719	0.368	0
96	20722	0.368	0
96	20737	0.368	0
96	20740	0.368	0
96	20745	0.368	0
96	20748	0.368	0
96	20757	0.368	0
96	20791	0.369	0
96	20825	0.37	0
96	20832	0.37	0
96	20867	0.371	0
96	20919	0.372	0
96	20969	0.373	0
96	20972	0.373	0
96	21003	0.374	0
96	21006	0.374	0
96	21017	0.374	0
96	21020	0.374	0
96	21035	0.374	0
96	21038	0.374	0
96	21043	0.374	0
96	21046	0.374	0
96	21090	0.375	0
96	21094	0.375	0
96	21157	0.377	0
96	21163	0.377	0
96	21213	0.378	0
96	21216	0.378	0
96	21304	0.38	0
96	21307	0.38	0
96	21318	0.38	0
96	21321	0.38	0
96	21336	0.38	0
96	21339	0.38	0
96	21344	0.38	0
96	21347	0.38	0
96	21355	0.38	0
96	21359	0.38	0
96	21424	0.382	0
96	21430	0.382	0
96	21460	0.383	0
96	21463	0.383	0
96	21574	0.385	0
96	21578	0.385	0
96	21608	0.386	0
96	21611	0.386	0
96	21622	0.386	0
96	21625	0.386	0
96	21640	0.386	0
96	21643	0.386	0
96	21648	0.386	0
96	21651	0.386	0
96	21691	0.387	0
96	21697	0.387	0
96	21727	0.388	0
96	21730	0.388	0
96	21821	0.39	0
96	21825	0.39	0
96	21912	0.392	0
96	21915	0.392	0
96	21926	0.392	0
96	21929	0.392	0
96	21944	0.392	0
96	21947	0.392	0
96	21952	0.392	0
96	21955	0.392	0
96	21958	0.392	0
96	21964	0.392	0
96	21997	0.393	0
96	22031	0.394	0
96	22066	0.395	0
96	22073	0.395	0
96	22130	0.396	0
96	22182	0.397	0
96	22211	0.398	0
96	22214	0.398	0
96	22225	0.398	0
96	22228	0.398	0
96	22243	0.398	0
96	22246	0.398	0
96	22251	0.398	0
96	22254	0.398	0
96	22263	0.398	0
96	22297	0.399	0
96	22347	0.4	0
96	22354	0.4	0
96	22389	0.401	0
96	22441	0.402	0
96	22491	0.403	0
96	22494	0.403	0
96	22525	0.404	0
96	22528	0.404	0
96	22539	0.404	0
96	22542	0.404	0
96	22557	0.404	0
96	22560	0.404	0
96	22565	0.404	0
96	22568	0.404	0
96	22612	0.405	0
96	22616	0.405	0
96	22679	0.407	0
96	22685	0.407	0
96	22743	0.408	0
96	22746	0.408	0
96	22834	0.41	0
96	22837	0.41	0
96	22848	0.41	0
96	22851	0.41	0
96	22866	0.41	0
96	22869	0.41	0
96	22874	0.41	0
96	22877	0.41	0
96	22885	0.41	0
96	22889	0.41	0
96	22954	0.412	0
96	22960	0.412	0
96	22990	0.413	0
96	22993	0.413	0
96	23104	0.415	0
96	23108	0.415	0
96	23138	0.416	0
96	23141	0.416	0
96	23152	0.416	0
96	23155	0.416	0
96	23170	0.416	0
96	23173	0.416	0
96	23178	0.416	0
96	23181	0.416	0
96	23221	0.417	0
96	23227	0.417	0
96	23257	0.418	0
96	23260	0.418	0
96	23351	0.42	0
96	23355	0.42	0
96	23442	0.422	0
96	23445	0.422	0
96	23456	0.422	0
96	23459	0.422	0
96	23474	0.422	0
96	23477	0.422	0
96	23482	0.422	0
96	23485	0.422	0
96	23488	0.422	0
96	23494	0.422	0
96	23527	0.423	0
96	23561	0.424	0
96	23596	0.425	0
96	23603	0.425	0
96	23660	0.426	0
96	23712	0.427	0
96	23741	0.428	0
96	23744	0.428	0
96	23755	0.428	0
96	23758	0.428	0
96	23773	0.428	0
96	23776	0.428	0
96	23781	0.428	0
96	23784	0.428	0
96	23793	0.428	0
96	23827	0.429	0
96	23861	0.43	0
96	23868	0.43	0
96	23903	0.431	0
96	23955	0.432	0
96	24005	0.433	0
96	24008	0.433	0
96	24039	0.434	0
96	24042	0.434	0
96	24053	0.434	0
96	24056	0.434	0
96	24071	0.434	0
96	24074	0.434	0
96	24079	0.434	0
96	24082	0.434	0
96	24126	0.435	0
96	24130	0.435	0
96	24193	0.437	0
96	24199	0.437	0
96	24249	0.438	0
96	24252	0.438	0
96	24340	0.44	0
96	24343	0.44	0
96	24354	0.44	0
96	24357	0.44	0
96	24372	0.44	0
96	24375	0.44	0
96	24380	0.44	0
96	24383	0.44	0
96	24391	0.44	0
96	24395	0.44	0
96	24460	0.442	0
96	24466	0.442	0
96	24496	0.443	0
96	24499	0.443	0
96	24610	0.445	0
96	24614	0.445	0
96	24644	0.446	0
96	24647	0.446	0
96	24658	0.446	0
96	24661	0.446	0
96	24676	0.446	0
96	24679	0.446	0
96	24684	0.446	0
96	24687	0.446	0
96	24727	0.447	0
96	24733	0.447	0
96	24763	0.448	0
96	24766	0.448	0
96	24857	0.45	0
96	24861	0.45	0
96	24948	0.452	0
96	24951	0.452	0
96	24962	0.452	0
96	24965	0.452	0
96	24980	0.452	0
96	24983	0.452	0
96	24988	0.452	0
96	24991	0.452	0
96	24994	0.452	0
96	25000	0.452	0
96	25033	0.453	0
96	25067	0.454	0
96	25102	0.455	0
96	25109	0.455	0
96	25166	0.456	0
96	25218	0.457	0
96	25255	0.458	0
96	25258	0.458	0
96	25269	0.458	0
96	25272	0.458	0
96	25287	0.458	0
96	25290	0.458	0
96	25295	0.458	0
96	25298	0.458	0
96	25307	0.458	0
96	25341	0.459	0
96	25375	0.46	0
96	25382	0.46	0
96	25417	0.461	0
96	25469	0.462	0
96	25519	0.463	0
96	25522	0.463	0
96	25553	0.464	0
96	25556	0.464	0
96	25567	0.464	0
96	25570	0.464	0
96	25585	0.464	0
96	25588	0.464	0
96	25593	0.464	0
96	25596	0.464	0
96	25640	0.465	0
96	25644	0.465	0
96	25707	0.467	0
96	25713	0.467	0
96	25763	0.468	0
96	25766	0.468	0
96	25854	0.47	0
96	25857	0.47	0
96	25868	0.47	0
96	25871	0.47	0
96	25886	0.47	0
96	25889	0.47	0
96	25894	0.47	0
96	25897	0.47	0
96	25905	0.47	0
96	25909	0.47	0
96	25974	0.472	0
96	25980	0.472	0
96	26010	0.473	0
96	26013	0.473	0
96	26124	0.475	0
96	26128	0.475	0
96	26158	0.476	0
96	26161	0.476	0
96	26172	0.476	0
96	26175	0.476	0
96	26190	0.476	0
96	26193	0.476	0
96	26198	0.476	0
96	26201	0.476	0
96	26241	0.477	0
96	26247	0.477	0
96	26277	0.478	0
96	26280	0.478	0
96	26371	0.48	0
96	26375	0.48	0
96	26462	0.482	0
96	26465	0.482	0
96	26476	0.482	0
96	26479	0.482	0
96	26494	0.482	0
96	26497	0.482	0
96	26502	0.482	0
96	26505	0.482	0
96	26508	0.482	0
96	26514	0.482	0
96	26547	0.483	0
96	26581	0.484	0
96	26616	0.485	0
96	26623	0.485	0
96	26680	0.486	0
96	26732	0.487	0
96	26761	0.488	0
96	26764	0.488	0
96	26775	0.488	0
96	26778	0.488	0
96	26793	0.488	0
96	26796	0.488	0
96	26801	0.488	0
96	26804	0.488	0
96	26813	0.488	0
96	26847	0.489	0
96	26881	0.49	0
96	26888	0.49	0
96	26923	0.491	0
96	26975	0.492	0
96	27025	0.493	0
96	27028	0.493	0
96	27059	0.494	0
96	27062	0.494	0
96	27073	0.494	0
96	27076	0.494	0
96	27091	0.494	0
96	27094	0.494	0
96	27099	0.494	0
96	27102	0.494	0
96	27146	0.495	0
96	27150	0.495	0
96	27213	0.497	0
96	27219	0.497	0
96	27269	0.498	0
96	27272	0.498	0
96	27376	0.5	0
96	27379	0.5	0
96	27390	0.5	0
96	27393	0.5	0
96	27408	0.5	0
96	27411	0.5	0
96	27416	0.5	0
96	27419	0.5	0
96	27427	0.5	0
96	27431	0.5	0
96	27496	0.502	0
96	27502	0.502	0
96	27532	0.503	0
96	27535	0.503	0
96	27646	0.505	0
96	27650	0.505	0
96	27680	0.506	0
96	27683	0.506	0
96	27694	0.506	0
96	27697	0.506	0
96	27712	0.506	0
96	27715	0.506	0
96	27720	0.506	0
96	27723	0.506	0
96	27763	0.507	0
96	27769	0.507	0
96	27799	0.508	0
96	27802	0.508	0
96	27893	0.51	0
96	27897	0.51	0
96	27984	0.512	0
96	27987	0.512	0
96	27998	0.512	0
96	28001	0.512	0
96	28016	0.512	0
96	28019	0.512	0
96	28024	0.512	0
96	28027	0.512	0
96	28030	0.512	0
96	28036	0.512	0
96	28069	0.513	0
96	28103	0.514	0
96	28138	0.515	0
96	28145	0.515	0
96	28202	0.516	0
96	28254	0.517	0
96	28283	0.518	0
96	28286	0.518	0
96	28297	0.518	0
96	28300	0.518	0
96	28315	0.518	0
96	28318	0.518	0
96	28323	0.518	0
96	28326	0.518	0
96	28335	0.518	0
96	28369	0.519	0
96	28403	0.52	0
96	28410	0.52	0
96	28445	0.521	0
96	28497	0.522	0
96	28547	0.523	0
96	28550	0.523	0
96	28581	0.524	0
96	28584	0.524	0
96	28595	0.524	0
96	28598	0.524	0
96	28613	0.524	0
96	28616	0.524	0
96	28621	0.524	0
96	28624	0.524	0
96	28668	0.525	0
96	28672	0.525	0
96	28735	0.527	0
96	28741	0.527	0
96	28791	0.528	0
96	28794	0.528	0
96	28882	0.53	0
96	28885	0.53	0
96	28896	0.53	0
96	28899	0.53	0
96	28914	0.53	0
96	28917	0.53	0
96	28922	0.53	0
96	28925	0.53	0
96	28933	0.53	0
96	28937	0.53	0
96	29002	0.532	0
96	29008	0.532	0
96	29038	0.533	0
96	29041	0.533	0
96	29152	0.535	0
96	29156	0.535	0
96	29186	0.536	0
96	29189	0.536	0
96	29200	0.536	0
96	29203	0.536	0
96	29218	0.536	0
96	29221	0.536	0
96	29226	0.536	0
96	29229	0.536	0
96	29269	0.537	0
96	29275	0.537	0
96	29305	0.538	0
96	29308	0.538	0
96	29399	0.54	0
96	29403	0.54	0
96	29490	0.542	0
96	29493	0.542	0
96	29504	0.542	0
96	29507	0.542	0
96	29522	0.542	0
96	29525	0.542	0
96	29530	0.542	0
96	29533	0.542	0
96	29536	0.542	0
96	29542	0.542	0
96	29575	0.543	0
96	29609	0.544	0
96	29644	0.545	0
96	29651	0.545	0
96	29708	0.546	0
96	29760	0.547	0
96	29789	0.548	0
96	29792	0.548	0
96	29803	0.548	0
96	29806	0.548	0
96	29821	0.548	0
96	29824	0.548	0
96	29829	0.548	0
96	29832	0.548	0
96	29841	0.548	0
96	29875	0.549	0
96	29909	0.55	0
96	29916	0.55	0
96	29951	0.551	0
96	30003	0.552	0
96	30053	0.553	0
96	30056	0.553	0
96	30087	0.554	0
96	30090	0.554	0
96	30101	0.554	0
96	30104	0.554	0
96	30119	0.554	0
96	30122	0.554	0
96	30127	0.554	0
96	30130	0.554	0
96	30174	0.555	0
96	30178	0.555	0
96	30241	0.557	0
96	30247	0.557	0
96	30297	0.558	0
96	30300	0.558	0
96	30388	0.56	0
96	30391	0.56	0
96	30402	0.56	0
96	30405	0.56	0
96	30420	0.56	0
96	30423	0.56	0
96	30428	0.56	0
96	30431	0.56	0
96	30439	0.56	0
96	30443	0.56	0
96	30508	0.562	0
96	30514	0.562	0
96	30544	0.563	0
96	30547	0.563	0
96	30658	0.565	0
96	30662	0.565	0
96	30692	0.566	0
96	30695	0.566	0
96	30706	0.566	0
96	30709	0.566	0
96	30724	0.566	0
96	30727	0.566	0
96	30732	0.566	0
96	30735	0.566	0
96	30775	0.567	0
96	30781	0.567	0
96	30811	0.568	0
96	30814	0.568	0
96	30905	0.57	0
96	30909	0.57	0
96	30996	0.572	0
96	30999	0.572	0
96	31010	0.572	0
96	31013	0.572	0
[...]
1175	11663	0.2070005424	84
1175	11663	0.2070005424	86
1175	11663	0.2070005424	88
1175	11663	0.2070005424	90
1175	11663	0.2070005424	92
1175	11663	0.2070005424	94
1175	11663	0.2070005424	96
1175	11663	0.2070005424	98
1175	11663	0.2070005424	100
1175	11663	0.2070005424	102
1175	11663	0.2070005424	104
1175	11663	0.2070005424	106
1175	11663	0.2070005424	108
1175	11663	0.2070005424	110
1175	11663	0.2070005424	112
1175	11663	0.2070005424	114
1175	11663	0.2070005424	116
1175	11663	0.2070005424	118
1175	11663	0.2070005424	120
1175	11663	0.2070005424	122
1175	11663	0.2070005424	124
1175	11663	0.2070005424	126
1175	11663	0.2070005424	128
1175	11663	0.2070005424	130
1175	11663	0.2070005424	132
1175	11663	0.2070005424	134
1175	11663	0.2070005424	136
1175	11663	0.2070005424	138
1175	11663	0.2070005424	140
1175	11663	0.2070005424	142
1175	11663	0.2070005424	144
1175	11663	0.2070005424	146
1175	11663	0.2070005424	148
1175	11663	0.2070005424	150
1175	11663	0.2070005424	152
1175	11663	0.2070005424	154
1175	11663	0.2070005424	156
1175	11663	0.2070005424	158
1175	11663	0.2070005424	160
1175	11663	0.2070005424	162
1175	11663	0.2070005424	164
1175	11663	0.2070005424	166
1175	11663	0.2070005424	168
1175	11663	0.2070005424	170
1175	11663	0.2070005424	172
1175	11663	0.2070005424	174
1175	11663	0.2070005424	176
1175	11663	0.2070005424	178
1175	11663	0.2070005424	180
1175	11663	0.2070005424	182
1175	11663	0.2070005424	184
1175	11663	0.2070005424	186
1175	11663	0.2070005424	188
1175	11663	0.2070005424	190
1175	11663	0.2070005424	192
1175	22693	0.4070022536	190
1175	22693	0.4070022536	188
1175	22693	0.4070022536	186
1175	22693	0.4070022536	184
1175	22693	0.4070022536	182
1175	22693	0.4070022536	180
1175	22693	0.4070022536	178
1175	22693	0.4070022536	176
1175	22693	0.4070022536	174
1175	22693	0.4070022536	172
1175	22693	0.4070022536	170
1175	22693	0.4070022536	168
1175	22693	0.4070022536	166
1175	22693	0.4070022536	164
1175	22693	0.4070022536	162
1175	22693	0.4070022536	160
1175	22693	0.4070022536	158
1175	22693	0.4070022536	156
1175	22693	0.4070022536	154
1175	22693	0.4070022536	152
1175	22693	0.4070022536	150
1175	22693	0.4070022536	148
1175	22693	0.4070022536	146
1175	22693	0.4070022536	144
1175	22693	0.4070022536	142
1175	22693	0.4070022536	140
1175	22693	0.4070022536	138
1175	22693	0.4070022536	136
1175	22693	0.4070022536	134
1175	22693	0.4070022536	132
1175	22693	0.4070022536	130
1175	22693	0.4070022536	128
1175	22693	0.4070022536	126
1175	22693	0.4070022536	124
1175	22693	0.4070022536	122
1175	22693	0.4070022536	120
1175	22693	0.4070022536	118
1175	22693	0.4070022536	116
1175	22693	0.4070022536	114
1175	22693	0.4070022536	112
1175	22693	0.4070022536	110
1175	22693	0.4070022536	108
1175	22693	0.4070022536	106
1175	22693	0.4070022536	104
1175	22693	0.4070022536	102
1175	22693	0.4070022536	100
1175	22693	0.4070022536	98
1175	22693	0.4070022536	96
1175	22693	0.4070022536	94
1175	22693	0.4070022536	92
1175	22693	0.4070022536	90
1175	22693	0.4070022536	88
1175	22693	0.4070022536	86
1175	22693	0.4070022536	84
1175	22693	0.4070022536	82
1175	22693	0.4070022536	80
1175	22693	0.4070022536	78
1175	22693	0.4070022536	76
1175	22693	0.4070022536	74
1175	22693	0.4070022536	72
1175	22693	0.4070022536	70
1175	22693	0.4070022536	68
1175	22693	0.4070022536	66
1175	22693	0.4070022536	64
1175	22693	0.4070022536	62
1175	22693	0.4070022536	60
1175	22693	0.4070022536	58
1175	22693	0.4070022536	56
1175	22693	0.4070022536	54
1175	22693	0.4070022536	52
1175	22693	0.4070022536	50
1175	22693	0.4070022536	48
1175	22693	0.4070022536	46
1175	22693	0.4070022536	44
1175	22693	0.4070022536	42
1175	22693	0.4070022536	40
1175	22693	0.4070022536	38
1175	22693	0.4070022536	36
1175	22693	0.4070022536	34
1175	22693	0.4070022536	32
1175	22693	0.4070022536	30
1175	22693	0.4070022536	28
1175	22693	0.4070022536	26
1175	22693	0.4070022536	24
1175	22693	0.4070022536	22
1175	22693	0.4070022536	20
1175	22693	0.4070022536	18
1175	22693	0.4070022536	16
1175	22693	0.4070022536	14
1175	22693	0.4070022536	12
1175	22693	0.4070022536	10
1175	22693	0.4070022536	8
1175	22693	0.4070022536	6
1175	22693	0.4070022536	4
1175	22693	0.4070022536	2
1175	22693	0.4070022536	0
1178	651	0.0070001912	0
1178	11663	0.2070005424	0
1178	22693	0.4070022536	0
1179	651	0.0070001912	0
1179	11663	0.2070005424	0
1179	22693	0.4070022536	0
1180	651	0.0070001912	0
1180	11663	0.2070005424	0
1180	22693	0.4070022536	0
1181	651	0.0070001912	0
1181	11663	0.2070005424	0
1181	22693	0.4070022536	0
1182	150	0.0000001228	0
1185	651	0.0070001912	2000
1185	11663	0.2070005424	2011
1185	22693	0.4070022536	2107
1187	651	0.0070001912	0
1187	11663	0.2070005424	0
1187	22693	0.4070022536	0
1188	651	0.0070001912	0
1188	11663	0.2070005424	0
1188	22693	0.4070022536	0
1190	235	0.0000006304	3
1192	235	0.0000006304	65535
1193	235	0.0000006304	8940
1194	235	0.0000006304	0.3725
1197	235	0.0000006304	1
1209	163	0.0000003096	0
1217	235	0.0000006304	3
1219	235	0.0000006304	65535
1220	235	0.0000006304	8940
1221	235	0.0000006304	0.3725
1224	235	0.0000006304	1
1236	163	0.0000003096	0
1244	236	0.0000006304	3
1246	236	0.0000006304	65535
1247	236	0.0000006304	8940
1248	236	0.0000006304	0.3725
1251	236	0.0000006304	1
1263	164	0.0000003096	0
1271	236	0.0000006304	3
1273	236	0.0000006304	65535
1274	236	0.0000006304	8940
1275	236	0.0000006304	0.3725
1278	236	0.0000006304	1
1290	164	0.0000003096	0
1300	3599	0.0570001912	0
1300	14636	0.2570005424	0
1300	25226	0.4570022536	0
1301	3526	0.057	1
1301	3526	0.057	0
1301	3529	0.057	1
1301	3530	0.057	2
1301	3531	0.057	3
1301	3532	0.057	4
1301	3533	0.057	5
1301	3534	0.057	6
1301	3535	0.057	7
1301	3536	0.057	8
1301	3537	0.057	9
1301	3538	0.057	10
1301	3539	0.057	11
1301	3599	0.0570001912	10
1301	3599	0.0570001912	9
1301	3599	0.0570001912	8
1301	3599	0.0570001912	7
1301	3599	0.0570001912	6
1301	3599	0.0570001912	5
1301	3599	0.0570001912	4
1301	3599	0.0570001912	3
1301	3599	0.0570001912	2
1301	3599	0.0570001912	1
1301	3599	0.0570001912	0
1301	3970	0.063	1
1301	3971	0.063	2
1301	3972	0.063	3
1301	3973	0.063	4
1301	3974	0.063	5
1301	3975	0.063	6
1301	3976	0.063	7
1301	3977	0.063	8
1301	3978	0.063	9
1301	3979	0.063	10
1301	3980	0.063	11
1301	3981	0.063	12
1301	4341	0.069	13
1301	4342	0.069	14
1301	4343	0.069	15
1301	4344	0.069	16
1301	4345	0.069	17
1301	4346	0.069	18
1301	4347	0.069	19
1301	4348	0.069	20
1301	4349	0.069	21
1301	4350	0.069	22
1301	4351	0.069	23
1301	4352	0.069	24
1301	4710	0.075	25
1301	4711	0.075	26
1301	4712	0.075	27
1301	4713	0.075	28
1301	4714	0.075	29
1301	4715	0.075	30
1301	4716	0.075	31
1301	4717	0.075	32
1301	4718	0.075	33
1301	4719	0.075	34
1301	4720	0.075	35
1301	4721	0.075	36
1301	5049	0.081	37
1301	5050	0.081	38
1301	5051	0.081	39
1301	5052	0.081	40
1301	5053	0.081	41
1301	5054	0.081	42
1301	5055	0.081	43
1301	5056	0.081	44
1301	5057	0.081	45
1301	5058	0.081	46
1301	5059	0.081	47
1301	5060	0.081	48
1301	5395	0.087	49
1301	5396	0.087	50
1301	5397	0.087	51
1301	5398	0.087	52
1301	5399	0.087	53
1301	5400	0.087	54
1301	5401	0.087	55
1301	5402	0.087	56
1301	5403	0.087	57
1301	5404	0.087	58
1301	5405	0.087	59
1301	5406	0.087	60
1301	5748	0.093	61
1301	5749	0.093	62
1301	5750	0.093	63
1301	5751	0.093	64
1301	5752	0.093	65
1301	5753	0.093	66
1301	5754	0.093	67
1301	5755	0.093	68
1301	5756	0.093	69
1301	5757	0.093	70
1301	5758	0.093	71
1301	5759	0.093	72
1301	6099	0.099	73
1301	6100	0.099	74
1301	6101	0.099	75
1301	6102	0.099	76
1301	6103	0.099	77
1301	6104	0.099	78
1301	6105	0.099	79
1301	6106	0.099	80
1301	6107	0.099	81
1301	6108	0.099	82
1301	6109	0.099	83
1301	6110	0.099	84
1301	6468	0.105	85
1301	6469	0.105	86
1301	6470	0.105	87
1301	6471	0.105	88
1301	6472	0.105	89
1301	6473	0.105	90
1301	6474	0.105	91
1301	6475	0.105	92
1301	6476	0.105	93
1301	6477	0.105	94
1301	6478	0.105	95
1301	6479	0.105	96
1301	14636	0.2570005424	95
1301	14636	0.2570005424	94
1301	14636	0.2570005424	93
1301	14636	0.2570005424	92
1301	14636	0.2570005424	91
1301	14636	0.2570005424	90
1301	14636	0.2570005424	89
1301	14636	0.2570005424	88
1301	14636	0.2570005424	87
1301	14636	0.2570005424	86
1301	14636	0.2570005424	85
1301	14636	0.2570005424	84
1301	14636	0.2570005424	83
1301	14636	0.2570005424	82
1301	14636	0.2570005424	81
1301	14636	0.2570005424	80
1301	14636	0.2570005424	79
1301	14636	0.2570005424	78
1301	14636	0.2570005424	77
1301	14636	0.2570005424	76
1301	14636	0.2570005424	75
1301	14636	0.2570005424	74
1301	14636	0.2570005424	73
1301	14636	0.2570005424	72
1301	14636	0.2570005424	71
1301	14636	0.2570005424	70
1301	14636	0.2570005424	69
1301	14636	0.2570005424	68
1301	14636	0.2570005424	67
1301	14636	0.2570005424	66
1301	14636	0.2570005424	65
1301	14636	0.2570005424	64
1301	14636	0.2570005424	63
1301	14636	0.2570005424	62
1301	14636	0.2570005424	61
1301	14636	0.2570005424	60
1301	14636	0.2570005424	59
1301	14636	0.2570005424	58
1301	14636	0.2570005424	57
1301	14636	0.2570005424	56
1301	14636	0.2570005424	55
1301	14636	0.2570005424	54
1301	14636	0.2570005424	53
1301	14636	0.2570005424	52
1301	14636	0.2570005424	51
1301	14636	0.2570005424	50
1301	14636	0.2570005424	49
1301	14636	0.2570005424	48
1301	14636	0.2570005424	47
1301	14636	0.2570005424	46
1301	14636	0.2570005424	45
1301	14636	0.2570005424	44
1301	14636	0.2570005424	43
1301	14636	0.2570005424	42
1301	14636	0.2570005424	41
1301	14636	0.2570005424	40
1301	14636	0.2570005424	39
1301	14636	0.2570005424	38
1301	14636	0.2570005424	37
1301	14636	0.2570005424	36
1301	14636	0.2570005424	35
1301	14636	0.2570005424	34
1301	14636	0.2570005424	33
1301	14636	0.2570005424	32
1301	14636	0.2570005424	31
1301	14636	0.2570005424	30
1301	14636	0.2570005424	29
1301	14636	0.2570005424	28
1301	14636	0.2570005424	27
1301	14636	0.2570005424	26
1301	14636	0.2570005424	25
1301	14636	0.2570005424	24
1301	14636	0.2570005424	23
1301	14636	0.2570005424	22
1301	14636	0.2570005424	21
1301	14636	0.2570005424	20
1301	14636	0.2570005424	19
1301	14636	0.2570005424	18
1301	14636	0.2570005424	17
1301	14636	0.2570005424	16
1301	14636	0.2570005424	15
1301	14636	0.2570005424	14
1301	14636	0.2570005424	13
1301	14636	0.2570005424	12
1301	14636	0.2570005424	11
1301	14636	0.2570005424	10
1301	14636	0.2570005424	9
1301	14636	0.2570005424	8
1301	14636	0.2570005424	7
1301	14636	0.2570005424	6
1301	14636	0.2570005424	5
1301	14636	0.2570005424	4
1301	14636	0.2570005424	3
1301	14636	0.2570005424	2
1301	14636	0.2570005424	1
1301	14636	0.2570005424	0
1304	651	0.0070001912	0
1304	11663	0.2070005424	0
1304	22693	0.4070022536	0
1305	597	0.007	1
1305	597	0.007	0
1305	598	0.007	1
1305	599	0.007	2
1305	600	0.007	3
1305	601	0.007	4
1305	602	0.007	5
1305	603	0.007	6
1305	604	0.007	7
1305	605	0.007	8
1305	606	0.007	9
1305	607	0.007	10
1305	608	0.007	11
1305	651	0.0070001912	10
1305	651	0.0070001912	9
1305	651	0.0070001912	8
1305	651	0.0070001912	7
1305	651	0.0070001912	6
1305	651	0.0070001912	5
1305	651	0.0070001912	4
1305	651	0.0070001912	3
1305	651	0.0070001912	2
1305	651	0.0070001912	1
1305	651	0.0070001912	0
1305	922	0.013	1
1305	923	0.013	2
1305	924	0.013	3
1305	925	0.013	4
1305	926	0.013	5
1305	927	0.013	6
1305	928	0.013	7
1305	929	0.013	8
1305	930	0.013	9
1305	931	0.013	10
1305	932	0.013	11
1305	933	0.013	12
1305	1178	0.019	13
1305	1179	0.019	14
1305	1180	0.019	15
1305	1181	0.019	16
1305	1182	0.019	17
1305	1183	0.019	18
1305	1184	0.019	19
1305	1185	0.019	20
1305	1186	0.019	21
1305	1187	0.019	22
1305	1188	0.019	23
1305	1189	0.019	24
1305	1452	0.025	25
1305	1453	0.025	26
1305	1454	0.025	27
1305	1455	0.025	28
1305	1456	0.025	29
1305	1457	0.025	30
1305	1458	0.025	31
1305	1459	0.025	32
1305	1460	0.025	33
1305	1461	0.025	34
1305	1462	0.025	35
1305	1463	0.025	36
1305	1771	0.031	37
1305	1772	0.031	38
1305	1773	0.031	39
1305	1774	0.031	40
1305	1775	0.031	41
1305	1776	0.031	42
1305	1777	0.031	43
1305	1778	0.031	44
1305	1779	0.031	45
1305	1780	0.031	46
1305	1781	0.031	47
1305	1782	0.031	48
1305	2124	0.037	49
1305	2125	0.037	50
1305	2126	0.037	51
1305	2127	0.037	52
1305	2128	0.037	53
1305	2129	0.037	54
1305	2130	0.037	55
1305	2131	0.037	56
1305	2132	0.037	57
1305	2133	0.037	58
1305	2134	0.037	59
1305	2135	0.037	60
1305	2493	0.043	61
1305	2494	0.043	62
1305	2495	0.043	63
1305	2496	0.043	64
1305	2497	0.043	65
1305	2498	0.043	66
1305	2499	0.043	67
1305	2500	0.043	68
1305	2501	0.043	69
1305	2502	0.043	70
1305	2503	0.043	71
1305	2504	0.043	72
1305	2892	0.049	73
1305	2893	0.049	74
1305	2894	0.049	75
1305	2895	0.049	76
1305	2896	0.049	77
1305	2897	0.049	78
1305	2898	0.049	79
1305	2899	0.049	80
1305	2900	0.049	81
1305	2901	0.049	82
1305	2902	0.049	83
1305	2903	0.049	84
1305	3318	0.055	85
1305	3319	0.055	86
1305	3320	0.055	87
1305	3321	0.055	88
1305	3322	0.055	89
1305	3323	0.055	90
1305	3324	0.055	91
1305	3325	0.055	92
1305	3326	0.055	93
1305	3327	0.055	94
1305	3328	0.055	95
1305	3329	0.055	96
1305	11663	0.2070005424	95
1305	11663	0.2070005424	94
1305	11663	0.2070005424	93
1305	11663	0.2070005424	92
1305	11663	0.2070005424	91
1305	11663	0.2070005424	90
1305	11663	0.2070005424	89
1305	11663	0.2070005424	88
1305	11663	0.2070005424	87
1305	11663	0.2070005424	86
1305	11663	0.2070005424	85
1305	11663	0.2070005424	84
1305	11663	0.2070005424	83
1305	11663	0.2070005424	82
1305	11663	0.2070005424	81
1305	11663	0.2070005424	80
1305	11663	0.2070005424	79
1305	11663	0.2070005424	78
1305	11663	0.2070005424	77
1305	11663	0.2070005424	76
1305	11663	0.2070005424	75
1305	11663	0.2070005424	74
1305	11663	0.2070005424	73
1305	11663	0.2070005424	72
1305	11663	0.2070005424	71
1305	11663	0.2070005424	70
1305	11663	0.2070005424	69
1305	11663	0.2070005424	68
1305	11663	0.2070005424	67
1305	11663	0.2070005424	66
1305	11663	0.2070005424	65
1305	11663	0.2070005424	64
1305	11663	0.2070005424	63
1305	11663	0.2070005424	62
1305	11663	0.2070005424	61
1305	11663	0.2070005424	60
1305	11663	0.2070005424	59
1305	11663	0.2070005424	58
1305	11663	0.2070005424	57
1305	11663	0.2070005424	56
1305	11663	0.2070005424	55
1305	11663	0.2070005424	54
1305	11663	0.2070005424	53
1305	11663	0.2070005424	52
1305	11663	0.2070005424	51
1305	11663	0.2070005424	50
1305	11663	0.2070005424	49
1305	11663	0.2070005424	48
1305	11663	0.2070005424	47
1305	11663	0.2070005424	46
1305	11663	0.2070005424	45
1305	11663	0.2070005424	44
1305	11663	0.2070005424	43
1305	11663	0.2070005424	42
1305	11663	0.2070005424	41
1305	11663	0.2070005424	40
1305	11663	0.2070005424	39
1305	11663	0.2070005424	38
1305	11663	0.2070005424	37
1305	11663	0.2070005424	36
1305	11663	0.2070005424	35
1305	11663	0.2070005424	34
1305	11663	0.2070005424	33
1305	11663	0.2070005424	32
1305	11663	0.2070005424	31
1305	11663	0.2070005424	30
1305	11663	0.2070005424	29
1305	11663	0.2070005424	28
1305	11663	0.2070005424	27
1305	11663	0.2070005424	26
1305	11663	0.2070005424	25
1305	11663	0.2070005424	24
1305	11663	0.2070005424	23
1305	11663	0.2070005424	22
1305	11663	0.2070005424	21
1305	11663	0.2070005424	20
1305	11663	0.2070005424	19
1305	11663	0.2070005424	18
1305	11663	0.2070005424	17
1305	11663	0.2070005424	16
1305	11663	0.2070005424	15
1305	11663	0.2070005424	14
1305	11663	0.2070005424	13
1305	11663	0.2070005424	12
1305	11663	0.2070005424	11
1305	11663	0.2070005424	10
1305	11663	0.2070005424	9
1305	11663	0.2070005424	8
1305	11663	0.2070005424	7
1305	11663	0.2070005424	6
1305	11663	0.2070005424	5
1305	11663	0.2070005424	4
1305	11663	0.2070005424	3
1305	11663	0.2070005424	2
1305	11663	0.2070005424	1
1305	11663	0.2070005424	0
1319	1055	0.016038050947	7504
1319	154108	3.016038050947	7504
1320	1055	0.016038050947	7504
1320	154108	3.016038050947	7504
1322	1055	0.016038050947	0
1322	154108	3.016038050947	0
1333	1055	0.016038050947	0
1333	154108	3.016038050947	0
1343	1295	0.021540784608	7504
1343	154397	3.021540784608	7504
1344	1295	0.021540784608	7504
1344	154397	3.021540784608	7504
1346	1295	0.021540784608	0
1346	154397	3.021540784608	0
1357	1295	0.021540784608	0
1357	154397	3.021540784608	0
1367	1547	0.02660460389	7504
1367	154694	3.02660460389	7504
1368	1547	0.02660460389	7504
1368	154694	3.02660460389	7504
1370	1547	0.02660460389	0
1370	154694	3.02660460389	0
1381	1547	0.02660460389	0
1381	154694	3.02660460389	0
1391	1582	0.027878343419	7504
1391	154744	3.027878343419	7504
1392	1582	0.027878343419	7504
1392	154744	3.027878343419	7504
1394	1582	0.027878343419	0
1394	154744	3.027878343419	0
1405	1582	0.027878343419	0
1405	154744	3.027878343419	0
1415	1624	0.028371024961	7504
1415	154791	3.028371024961	7504
1416	1624	0.028371024961	7504
1416	154791	3.028371024961	7504
1418	1624	0.028371024961	0
1418	154791	3.028371024961	0
1429	1624	0.028371024961	0
1429	154791	3.028371024961	0
1439	1876	0.032649362497	7504
1439	155084	3.032649362497	7504
1440	1876	0.032649362497	7504
1440	155084	3.032649362497	7504
1442	1876	0.032649362497	0
1442	155084	3.032649362497	0
1453	1876	0.032649362497	0
1453	155084	3.032649362497	0
1463	1961	0.034516076937	7504
1463	155177	3.034516076937	7504
1464	1961	0.034516076937	7504
1464	155177	3.034516076937	7504
1466	1961	0.034516076937	0
1466	155177	3.034516076937	0
1477	1961	0.034516076937	0
1477	155177	3.034516076937	0
1487	2073	0.036651693161	7504
1487	155309	3.036651693161	7504
1488	2073	0.036651693161	7504
1488	155309	3.036651693161	7504
1490	2073	0.036651693161	0
1490	155309	3.036651693161	0
1501	2073	0.036651693161	0
1501	155309	3.036651693161	0
1511	2336	0.040940929686	7504
1511	155590	3.040940929686	7504
1512	2336	0.040940929686	7504
1512	155590	3.040940929686	7504
1514	2336	0.040940929686	0
1514	155590	3.040940929686	0
1525	2336	0.040940929686	0
1525	155590	3.040940929686	0
1535	2841	0.04821039218	7504
1535	156087	3.04821039218	7504
1536	2841	0.04821039218	7504
1536	156087	3.04821039218	7504
1538	2841	0.04821039218	0
1538	156087	3.04821039218	0
1549	2841	0.04821039218	0
1549	156087	3.04821039218	0
1559	3404	0.055890854003	7504
1559	156564	3.055890854003	7504
1560	3404	0.055890854003	7504
1560	156564	3.055890854003	7504
1562	3404	0.055890854003	0
1562	156564	3.055890854003	0
1573	3404	0.055890854003	0
1573	156564	3.055890854003	0
1583	3663	0.057963030662	7504
1583	156707	3.057963030662	7504
1584	3663	0.057963030662	7504
1584	156707	3.057963030662	7504
1586	3663	0.057963030662	0
1586	156707	3.057963030662	0
1597	3663	0.057963030662	0
1597	156707	3.057963030662	0
1607	4016	0.063891002787	7504
1607	157057	3.063891002787	7504
1608	4016	0.063891002787	7504
1608	157057	3.063891002787	7504
1610	4016	0.063891002787	0
1610	157057	3.063891002787	0
1621	4016	0.063891002787	0
1621	157057	3.063891002787	0
1631	4059	0.064770889489	7504
1631	157109	3.064770889489	7504
1632	4059	0.064770889489	7504
1632	157109	3.064770889489	7504
1634	4059	0.064770889489	0
1634	157109	3.064770889489	0
1645	4059	0.064770889489	0
1645	157109	3.064770889489	0
1655	4923	0.079275280847	7504
1655	157955	3.079275280847	7504
1656	4923	0.079275280847	7504
1656	157955	3.079275280847	7504
1658	4923	0.079275280847	0
1658	157955	3.079275280847	0
1669	4923	0.079275280847	0
1669	157955	3.079275280847	0
1679	5128	0.082257983647	7504
1679	158130	3.082257983647	7504
1680	5128	0.082257983647	7504
1680	158130	3.082257983647	7504
1682	5128	0.082257983647	0
1682	158130	3.082257983647	0
1693	5128	0.082257983647	0
1693	158130	3.082257983647	0
1703	5468	0.088577514598	7504
1703	158482	3.088577514598	7504
1704	5468	0.088577514598	7504
1704	158482	3.088577514598	7504
1706	5468	0.088577514598	0
1706	158482	3.088577514598	0
1717	5468	0.088577514598	0
1717	158482	3.088577514598	0
1727	5476	0.088784986169	7504
1727	158489	3.088784986169	7504
1728	5476	0.088784986169	7504
1728	158489	3.088784986169	7504
1730	5476	0.088784986169	0
1730	158489	3.088784986169	0
1741	5476	0.088784986169	0
1741	158489	3.088784986169	0
1751	5912	0.096236986774	7504
1751	159006	3.096236986774	7504
1752	5912	0.096236986774	7504
1752	159006	3.096236986774	7504
1754	5912	0.096236986774	0
1754	159006	3.096236986774	0
1765	5912	0.096236986774	0
1765	159006	3.096236986774	0
1775	5920	0.09658703896	7504
1775	159013	3.09658703896	7504
1776	5920	0.09658703896	7504
1776	159013	3.09658703896	7504
1778	5920	0.09658703896	0
1778	159013	3.09658703896	0
1789	5920	0.09658703896	0
1789	159013	3.09658703896	0
