version 2
run CAIN-27-20200508-17:03:49-16170
attr configname CAIN
attr datetime 20200508-17:03:49
attr dist 200
attr experiment CAIN
attr inifile omnetpp.ini
attr iterationvars "$numUe=20, $pwr=-50, $dist=200, $mob=\"./movements/RWPRPGM-0.5.movements\""
attr iterationvars2 "$numUe=20, $pwr=-50, $dist=200, $mob=\"./movements/RWPRPGM-0.5.movements\", $repetition=2"
attr measurement "$numUe=20, $pwr=-50, $dist=200, $mob=\"./movements/RWPRPGM-0.5.movements\""
attr mob "\"./movements/RWPRPGM-0.5.movements\""
attr network lte.simulations.networks.CAIN
attr numUe 20
attr processid 16170
attr pwr -50
attr repetition 2
attr replication #2
attr resultdir results
attr runnumber 27
attr seedset 2
param **.**.amcMode "\"AUTO\""
param **.amcMode "\"D2D\""
param **.cainNetwork true
param **.channelControl.alpha 1.0
param **.channelControl.carrierFrequency 2100e+6Hz
param **.channelControl.pMax 10W
param **.d2dCqi 7
param **.deployer.numRbDl 50
param **.deployer.numRbUl 50
param **.distThresh ${dist=200}
param **.fbDelay 1
param **.feedbackComputation "xmldoc(\"config_channel.xml\")"
param **.mobility.constraintAreaMaxX 1000m
param **.mobility.constraintAreaMaxY 1000m
param **.mobility.constraintAreaMaxZ 0m
param **.mobility.constraintAreaMinX 0m
param **.mobility.constraintAreaMinY 0m
param **.mobility.constraintAreaMinZ 0m
param **.nic.phy.channelModel "xmldoc(\"config_channel.xml\")"
param **.numBands 50
param **.pwrThresh "${pwr= -50}"
param **.qtdThresh 3
param **.rbAllocationType "\"localized\""
param **.routingRecorder.enabled false
param **.tcpApp[*].tClose -1s
param **.ueD2DTx[*].mobility.changeAngleBy "normal(0deg, 30deg)"
param **.ueD2DTx[*].mobility.changeInterval "normal(5s, 0.1s)"
param **.ueD2DTx[*].mobility.nodeId -1
param **.ueD2DTx[*].mobility.speed "normal(2mps, 0.01mps)"
param **.ueD2DTx[*].mobility.traceFile "${mob=\"./movements/RWP-0.0.movements\",\"./movements/RWP-0.5.movements\",\"./movements/RPGM-0.0.movements\",\"./movements/RPGM-0.5.movements\",\"./movements/RWPRPGM-0.0.movements\",\"./movements/RWPRPGM-0.5.movements\"}"
param **.ueD2DTx[*].mobilityType "\"BonnMotionMobility\""
param **.usePreconfiguredTxParams false
param *.eNodeB*.numX2Apps 1
param *.eNodeB*.x2App[*].server.localPort "5000 + ancestorIndex(1)"
param *.eNodeB.d2dCapable false
param *.eNodeB.mobility.initFromDisplayString false
param *.eNodeB.mobility.initialX 300m
param *.eNodeB.mobility.initialY 300m
param *.eNodeB.nic.phy.enableD2DCqiReporting true
param *.eNodeB.txPower 19952.62315mw
param *.eNodeB.x2App[0].client.connectAddress "\"eNodeB1%x2ppp0\""
param *.eNodeB1.d2dCapable true
param *.eNodeB1.mobility.initFromDisplayString false
param *.eNodeB1.mobility.initialX 700m
param *.eNodeB1.mobility.initialY 300m
param *.eNodeB1.nic.phy.enableD2DCqiReporting true
param *.eNodeB1.txPower 19952.62315mw
param *.eNodeB1.x2App[0].client.connectAddress "\"eNodeB%x2ppp0\""
param *.extCell[*].bandAllocationType "\"FULL_ALLOC\""
param *.extCell[*].bandUtilization 0.5
param *.extCell[*].txDirection "\"ANISOTROPIC\""
param *.extCell[*].txPower 20
param *.extCell[0].position_x 100m
param *.extCell[0].position_y 600m
param *.extCell[0].txAngle 315
param *.extCell[1].position_x 600m
param *.extCell[1].position_y 600m
param *.extCell[1].txAngle 225
param *.numExtCells 2
param *.numUeCell 0
param *.numUeD2DRx 1
param *.numUeD2DTx 1
param *.ue*.macCellId 1
param *.ue*.masterId 1
param *.ue*.mobility.initFromDisplayString false
param *.ue*[0].macCellId 1
param *.ue*[0].masterId 1
param *.ue*[0].mobility.initFromDisplayString false
param *.ueD2D*.numTcpApps 1
param *.ueD2D*[*].d2dCapable true
param *.ueD2D*[0].d2dCapable false
param *.ueD2D*[0].numTcpApps 1
param *.ueD2DRx[0].mobility.initialX 310m
param *.ueD2DRx[0].mobility.initialY 350m
param *.ueD2DRx[0].tcpApp[*].localPort 1000
param *.ueD2DRx[0].tcpApp[*].typename "\"TCPSinkApp\""
param *.ueD2DTx*.nic.d2dPeerAddresses "\"ueD2DTx[1]\""
param *.ueD2DTx*.tcpApp[*].connectAddress "\"ueD2DTx[0]\""
param *.ueD2DTx*.tcpApp[*].localAddress "\"ueD2DTx\""
param *.ueD2DTx*.tcpApp[*].localPort 1000
param *.ueD2DTx*.tcpApp[*].sendBytes 1GiB
param *.ueD2DTx*.tcpApp[*].typename "\"TCPSessionApp\""
param *.ueD2DTx*.tcpApp[0].active true
param *.ueD2DTx*.tcpApp[0].connectPort 1000
param *.ueD2DTx*.tcpApp[0].tOpen uniform(0.010s,0.1s)
param *.ueD2DTx*.tcpApp[0].tSend uniform(0.15s,0.5s)
param *.ueD2DTx[0].mobility.initialX 290m
param *.ueD2DTx[0].mobility.initialY 350m
param *.ueD2DTx[0].tcpApp[*].localPort 1000
param *.ueD2DTx[0].tcpApp[*].sendBytes 1GiB
param *.ueD2DTx[0].tcpApp[*].typename "\"TCPSessionApp\""
param *.ueD2DTx[0].tcpApp[0].active true
param *.ueD2DTx[0].tcpApp[0].connectAddress "\"ueD2DRx[0]\""
param *.ueD2DTx[0].tcpApp[0].connectPort 1000
param *.ueD2DTx[0].tcpApp[0].localAddress "\"ueD2DTx[0]\""
param *.ueD2DTx[0].tcpApp[0].tOpen uniform(0.010s,0.1s)
param *.ueD2DTx[0].tcpApp[0].tSend uniform(0.15s,0.5s)
param *.ueD2DTx[1].mobility.initialX 690m
param *.ueD2DTx[1].mobility.initialY 250m

vector 8  CAIN.server.ppp[0].queue  queueLength:vector  ETV
attr interpolationmode  sample-hold
attr title  "queue length, vector"
vector 9  CAIN.server.ppp[0].ppp  txState:vector  ETV
attr interpolationmode  sample-hold
attr title  "tx state, vector"
vector 24  CAIN.router.ppp[0].queue  queueLength:vector  ETV
attr interpolationmode  sample-hold
attr title  "queue length, vector"
vector 25  CAIN.router.ppp[0].ppp  txState:vector  ETV
attr interpolationmode  sample-hold
attr title  "tx state, vector"
vector 35  CAIN.router.ppp[1].queue  queueLength:vector  ETV
attr interpolationmode  sample-hold
attr title  "queue length, vector"
vector 36  CAIN.router.ppp[1].ppp  txState:vector  ETV
attr interpolationmode  sample-hold
attr title  "tx state, vector"
vector 56  CAIN.pgw.ppp[0].queue  queueLength:vector  ETV
attr interpolationmode  sample-hold
attr title  "queue length, vector"
vector 57  CAIN.pgw.ppp[0].ppp  txState:vector  ETV
attr interpolationmode  sample-hold
attr title  "tx state, vector"
vector 67  CAIN.pgw.ppp[1].queue  queueLength:vector  ETV
attr interpolationmode  sample-hold
attr title  "queue length, vector"
vector 68  CAIN.pgw.ppp[1].ppp  txState:vector  ETV
attr interpolationmode  sample-hold
attr title  "tx state, vector"
vector 78  CAIN.pgw.pppInterface.queue  queueLength:vector  ETV
attr interpolationmode  sample-hold
attr title  "queue length, vector"
vector 79  CAIN.pgw.pppInterface.ppp  txState:vector  ETV
attr interpolationmode  sample-hold
attr title  "tx state, vector"
vector 120  CAIN.eNodeB.pppIf.queue  queueLength:vector  ETV
attr interpolationmode  sample-hold
attr title  "queue length, vector"
vector 121  CAIN.eNodeB.pppIf.ppp  txState:vector  ETV
attr interpolationmode  sample-hold
attr title  "tx state, vector"
vector 131  CAIN.eNodeB.x2ppp[0].queue  queueLength:vector  ETV
attr interpolationmode  sample-hold
attr title  "queue length, vector"
vector 132  CAIN.eNodeB.x2ppp[0].ppp  txState:vector  ETV
attr interpolationmode  sample-hold
attr title  "tx state, vector"
vector 178  CAIN.eNodeB1.pppIf.queue  queueLength:vector  ETV
attr interpolationmode  sample-hold
attr title  "queue length, vector"
vector 179  CAIN.eNodeB1.pppIf.ppp  txState:vector  ETV
attr interpolationmode  sample-hold
attr title  "tx state, vector"
vector 189  CAIN.eNodeB1.x2ppp[0].queue  queueLength:vector  ETV
attr interpolationmode  sample-hold
attr title  "queue length, vector"
vector 190  CAIN.eNodeB1.x2ppp[0].ppp  txState:vector  ETV
attr interpolationmode  sample-hold
attr title  "tx state, vector"
vector 231  CAIN.ueD2DTx[0].nic.phy  servingCell:vector  ETV
attr source  servingCell
attr title  "ID of the serving eNodeB for the UE, vector"
attr unit  ""
vector 263  CAIN.ueD2DTx[1].nic.phy  servingCell:vector  ETV
attr source  servingCell
attr title  "ID of the serving eNodeB for the UE, vector"
attr unit  ""
vector 295  CAIN.ueD2DTx[2].nic.phy  servingCell:vector  ETV
attr source  servingCell
attr title  "ID of the serving eNodeB for the UE, vector"
attr unit  ""
vector 327  CAIN.ueD2DTx[3].nic.phy  servingCell:vector  ETV
attr source  servingCell
attr title  "ID of the serving eNodeB for the UE, vector"
attr unit  ""
vector 359  CAIN.ueD2DTx[4].nic.phy  servingCell:vector  ETV
attr source  servingCell
attr title  "ID of the serving eNodeB for the UE, vector"
attr unit  ""
vector 391  CAIN.ueD2DTx[5].nic.phy  servingCell:vector  ETV
attr source  servingCell
attr title  "ID of the serving eNodeB for the UE, vector"
attr unit  ""
vector 423  CAIN.ueD2DTx[6].nic.phy  servingCell:vector  ETV
attr source  servingCell
attr title  "ID of the serving eNodeB for the UE, vector"
attr unit  ""
vector 455  CAIN.ueD2DTx[7].nic.phy  servingCell:vector  ETV
attr source  servingCell
attr title  "ID of the serving eNodeB for the UE, vector"
attr unit  ""
vector 487  CAIN.ueD2DTx[8].nic.phy  servingCell:vector  ETV
attr source  servingCell
attr title  "ID of the serving eNodeB for the UE, vector"
attr unit  ""
vector 519  CAIN.ueD2DTx[9].nic.phy  servingCell:vector  ETV
attr source  servingCell
attr title  "ID of the serving eNodeB for the UE, vector"
attr unit  ""
vector 551  CAIN.ueD2DTx[10].nic.phy  servingCell:vector  ETV
attr source  servingCell
attr title  "ID of the serving eNodeB for the UE, vector"
attr unit  ""
vector 583  CAIN.ueD2DTx[11].nic.phy  servingCell:vector  ETV
attr source  servingCell
attr title  "ID of the serving eNodeB for the UE, vector"
attr unit  ""
vector 615  CAIN.ueD2DTx[12].nic.phy  servingCell:vector  ETV
attr source  servingCell
attr title  "ID of the serving eNodeB for the UE, vector"
attr unit  ""
vector 647  CAIN.ueD2DTx[13].nic.phy  servingCell:vector  ETV
attr source  servingCell
attr title  "ID of the serving eNodeB for the UE, vector"
attr unit  ""
vector 679  CAIN.ueD2DTx[14].nic.phy  servingCell:vector  ETV
attr source  servingCell
attr title  "ID of the serving eNodeB for the UE, vector"
attr unit  ""
vector 711  CAIN.ueD2DTx[15].nic.phy  servingCell:vector  ETV
attr source  servingCell
attr title  "ID of the serving eNodeB for the UE, vector"
attr unit  ""
vector 743  CAIN.ueD2DTx[16].nic.phy  servingCell:vector  ETV
attr source  servingCell
attr title  "ID of the serving eNodeB for the UE, vector"
attr unit  ""
vector 775  CAIN.ueD2DTx[17].nic.phy  servingCell:vector  ETV
attr source  servingCell
attr title  "ID of the serving eNodeB for the UE, vector"
attr unit  ""
vector 807  CAIN.ueD2DTx[18].nic.phy  servingCell:vector  ETV
attr source  servingCell
attr title  "ID of the serving eNodeB for the UE, vector"
attr unit  ""
vector 839  CAIN.ueD2DTx[19].nic.phy  servingCell:vector  ETV
attr source  servingCell
attr title  "ID of the serving eNodeB for the UE, vector"
attr unit  ""
vector 863  CAIN.eNodeB.sctp  "Throughput of Association 3"  ETV
vector 885  CAIN.eNodeB1.sctp  "Throughput of Association 4"  ETV
vector 907  CAIN.eNodeB.sctp  "Throughput of Association 1"  ETV
vector 927  CAIN.eNodeB.sctp  "Fast Recovery State 1:10.0.5.2"  ETV
vector 956  CAIN.eNodeB1.sctp  "Throughput of Association 2"  ETV
vector 976  CAIN.eNodeB1.sctp  "Fast Recovery State 2:10.0.5.1"  ETV
vector 128  CAIN.eNodeB.x2ppp[0].queue  rcvdPk:vector(packetBytes)  ETV
attr interpolationmode  none
attr title  "received packets, vector(packetBytes)"
vector 130  CAIN.eNodeB.x2ppp[0].queue  queueingTime:vector  ETV
attr interpolationmode  none
attr title  "queueing time, vector"
vector 186  CAIN.eNodeB1.x2ppp[0].queue  rcvdPk:vector(packetBytes)  ETV
attr interpolationmode  none
attr title  "received packets, vector(packetBytes)"
vector 188  CAIN.eNodeB1.x2ppp[0].queue  queueingTime:vector  ETV
attr interpolationmode  none
attr title  "queueing time, vector"
vector 137  CAIN.eNodeB.x2ppp[0].ppp  rcvdPkFromHL:vector(packetBytes)  ETV
attr interpolationmode  none
attr source  packetReceivedFromUpper
attr title  "packets received from higher layer, vector(packetBytes)"
vector 133  CAIN.eNodeB.x2ppp[0].ppp  txPk:vector(packetBytes)  ETV
attr interpolationmode  none
attr source  packetSentToLower
attr title  "packets transmitted, vector(packetBytes)"
vector 195  CAIN.eNodeB1.x2ppp[0].ppp  rcvdPkFromHL:vector(packetBytes)  ETV
attr interpolationmode  none
attr source  packetReceivedFromUpper
attr title  "packets received from higher layer, vector(packetBytes)"
vector 191  CAIN.eNodeB1.x2ppp[0].ppp  txPk:vector(packetBytes)  ETV
attr interpolationmode  none
attr source  packetSentToLower
attr title  "packets transmitted, vector(packetBytes)"
vector 192  CAIN.eNodeB1.x2ppp[0].ppp  rxPkOk:vector(packetBytes)  ETV
attr interpolationmode  none
attr source  rxPkOk
attr title  "packets received OK, vector(packetBytes)"
vector 196  CAIN.eNodeB1.x2ppp[0].ppp  passedUpPk:vector(packetBytes)  ETV
attr interpolationmode  none
attr source  packetSentToUpper
attr title  "packets passed to higher layer, vector(packetBytes)"
vector 134  CAIN.eNodeB.x2ppp[0].ppp  rxPkOk:vector(packetBytes)  ETV
attr interpolationmode  none
attr source  rxPkOk
attr title  "packets received OK, vector(packetBytes)"
vector 138  CAIN.eNodeB.x2ppp[0].ppp  passedUpPk:vector(packetBytes)  ETV
attr interpolationmode  none
attr source  packetSentToUpper
attr title  "packets passed to higher layer, vector(packetBytes)"
vector 1005  CAIN.eNodeB1.sctp  "Throughput of Association 4"  ETV
vector 882  CAIN.eNodeB1.sctp  "Peer Rwnd 4"  ETV
vector 1025  CAIN.eNodeB1.sctp  "Fast Recovery State 5:10.0.4.1"  ETV
vector 1052  CAIN.eNodeB1.sctp  "Fast Recovery State 5:10.0.2.2"  ETV
vector 1079  CAIN.eNodeB1.sctp  "Fast Recovery State 5:10.0.5.1"  ETV
vector 1108  CAIN.eNodeB.sctp  "Throughput of Association 3"  ETV
vector 860  CAIN.eNodeB.sctp  "Peer Rwnd 3"  ETV
vector 1128  CAIN.eNodeB.sctp  "Fast Recovery State 6:10.0.4.2"  ETV
vector 1155  CAIN.eNodeB.sctp  "Fast Recovery State 6:10.0.3.2"  ETV
vector 1182  CAIN.eNodeB.sctp  "Fast Recovery State 6:10.0.5.2"  ETV
vector 904  CAIN.eNodeB.sctp  "Peer Rwnd 1"  ETV
vector 1209  CAIN.eNodeB.sctp  "Fast Recovery State 1:10.0.4.2"  ETV
vector 1236  CAIN.eNodeB.sctp  "Fast Recovery State 1:10.0.3.2"  ETV
vector 953  CAIN.eNodeB1.sctp  "Peer Rwnd 2"  ETV
vector 1263  CAIN.eNodeB1.sctp  "Fast Recovery State 2:10.0.4.1"  ETV
vector 1290  CAIN.eNodeB1.sctp  "Fast Recovery State 2:10.0.2.2"  ETV
vector 1035  CAIN.eNodeB1.sctp  "Slow Start Threshold 5:10.0.2.2"  ETV
vector 1036  CAIN.eNodeB1.sctp  "Congestion Window 5:10.0.2.2"  ETV
vector 1037  CAIN.eNodeB1.sctp  "Bandwidth 5:10.0.2.2"  ETV
vector 1040  CAIN.eNodeB1.sctp  "HB Sent 5:10.0.2.2"  ETV
vector 1033  CAIN.eNodeB1.sctp  "RTO 5:10.0.2.2"  ETV
vector 1008  CAIN.eNodeB1.sctp  "Slow Start Threshold 5:10.0.4.1"  ETV
vector 1009  CAIN.eNodeB1.sctp  "Congestion Window 5:10.0.4.1"  ETV
vector 1010  CAIN.eNodeB1.sctp  "Bandwidth 5:10.0.4.1"  ETV
vector 1013  CAIN.eNodeB1.sctp  "HB Sent 5:10.0.4.1"  ETV
vector 1006  CAIN.eNodeB1.sctp  "RTO 5:10.0.4.1"  ETV
vector 1062  CAIN.eNodeB1.sctp  "Slow Start Threshold 5:10.0.5.1"  ETV
vector 1063  CAIN.eNodeB1.sctp  "Congestion Window 5:10.0.5.1"  ETV
vector 1064  CAIN.eNodeB1.sctp  "Bandwidth 5:10.0.5.1"  ETV
vector 1060  CAIN.eNodeB1.sctp  "RTO 5:10.0.5.1"  ETV
vector 1138  CAIN.eNodeB.sctp  "Slow Start Threshold 6:10.0.3.2"  ETV
vector 1139  CAIN.eNodeB.sctp  "Congestion Window 6:10.0.3.2"  ETV
vector 1140  CAIN.eNodeB.sctp  "Bandwidth 6:10.0.3.2"  ETV
vector 1143  CAIN.eNodeB.sctp  "HB Sent 6:10.0.3.2"  ETV
vector 1136  CAIN.eNodeB.sctp  "RTO 6:10.0.3.2"  ETV
vector 1111  CAIN.eNodeB.sctp  "Slow Start Threshold 6:10.0.4.2"  ETV
vector 1112  CAIN.eNodeB.sctp  "Congestion Window 6:10.0.4.2"  ETV
vector 1113  CAIN.eNodeB.sctp  "Bandwidth 6:10.0.4.2"  ETV
vector 1116  CAIN.eNodeB.sctp  "HB Sent 6:10.0.4.2"  ETV
vector 1109  CAIN.eNodeB.sctp  "RTO 6:10.0.4.2"  ETV
vector 1165  CAIN.eNodeB.sctp  "Slow Start Threshold 6:10.0.5.2"  ETV
vector 1166  CAIN.eNodeB.sctp  "Congestion Window 6:10.0.5.2"  ETV
vector 1167  CAIN.eNodeB.sctp  "Bandwidth 6:10.0.5.2"  ETV
vector 1163  CAIN.eNodeB.sctp  "RTO 6:10.0.5.2"  ETV
vector 916  CAIN.eNodeB.sctp  "HB ACK Sent 1:10.0.5.2"  ETV
vector 917  CAIN.eNodeB.sctp  "HB Received 1:10.0.5.2"  ETV
vector 965  CAIN.eNodeB1.sctp  "HB ACK Sent 2:10.0.5.1"  ETV
vector 966  CAIN.eNodeB1.sctp  "HB Received 2:10.0.5.1"  ETV
vector 1219  CAIN.eNodeB.sctp  "Slow Start Threshold 1:10.0.3.2"  ETV
vector 1220  CAIN.eNodeB.sctp  "Congestion Window 1:10.0.3.2"  ETV
vector 1221  CAIN.eNodeB.sctp  "Bandwidth 1:10.0.3.2"  ETV
vector 1224  CAIN.eNodeB.sctp  "HB Sent 1:10.0.3.2"  ETV
vector 1217  CAIN.eNodeB.sctp  "RTO 1:10.0.3.2"  ETV
vector 1192  CAIN.eNodeB.sctp  "Slow Start Threshold 1:10.0.4.2"  ETV
vector 1193  CAIN.eNodeB.sctp  "Congestion Window 1:10.0.4.2"  ETV
vector 1194  CAIN.eNodeB.sctp  "Bandwidth 1:10.0.4.2"  ETV
vector 1197  CAIN.eNodeB.sctp  "HB Sent 1:10.0.4.2"  ETV
vector 1190  CAIN.eNodeB.sctp  "RTO 1:10.0.4.2"  ETV
vector 910  CAIN.eNodeB.sctp  "Slow Start Threshold 1:10.0.5.2"  ETV
vector 911  CAIN.eNodeB.sctp  "Congestion Window 1:10.0.5.2"  ETV
vector 912  CAIN.eNodeB.sctp  "Bandwidth 1:10.0.5.2"  ETV
vector 908  CAIN.eNodeB.sctp  "RTO 1:10.0.5.2"  ETV
vector 1273  CAIN.eNodeB1.sctp  "Slow Start Threshold 2:10.0.2.2"  ETV
vector 1274  CAIN.eNodeB1.sctp  "Congestion Window 2:10.0.2.2"  ETV
vector 1275  CAIN.eNodeB1.sctp  "Bandwidth 2:10.0.2.2"  ETV
vector 1278  CAIN.eNodeB1.sctp  "HB Sent 2:10.0.2.2"  ETV
vector 1271  CAIN.eNodeB1.sctp  "RTO 2:10.0.2.2"  ETV
vector 1246  CAIN.eNodeB1.sctp  "Slow Start Threshold 2:10.0.4.1"  ETV
vector 1247  CAIN.eNodeB1.sctp  "Congestion Window 2:10.0.4.1"  ETV
vector 1248  CAIN.eNodeB1.sctp  "Bandwidth 2:10.0.4.1"  ETV
vector 1251  CAIN.eNodeB1.sctp  "HB Sent 2:10.0.4.1"  ETV
vector 1244  CAIN.eNodeB1.sctp  "RTO 2:10.0.4.1"  ETV
vector 959  CAIN.eNodeB1.sctp  "Slow Start Threshold 2:10.0.5.1"  ETV
vector 960  CAIN.eNodeB1.sctp  "Congestion Window 2:10.0.5.1"  ETV
vector 961  CAIN.eNodeB1.sctp  "Bandwidth 2:10.0.5.1"  ETV
vector 957  CAIN.eNodeB1.sctp  "RTO 2:10.0.5.1"  ETV
vector 1173  CAIN.eNodeB.sctp  "HB ACK Received 6:10.0.5.2"  ETV
vector 1164  CAIN.eNodeB.sctp  "RTT 6:10.0.5.2"  ETV
vector 1070  CAIN.eNodeB1.sctp  "HB ACK Received 5:10.0.5.1"  ETV
vector 1061  CAIN.eNodeB1.sctp  "RTT 5:10.0.5.1"  ETV
vector 1171  CAIN.eNodeB.sctp  "HB ACK Sent 6:10.0.5.2"  ETV
vector 1172  CAIN.eNodeB.sctp  "HB Received 6:10.0.5.2"  ETV
vector 1068  CAIN.eNodeB1.sctp  "HB ACK Sent 5:10.0.5.1"  ETV
vector 1069  CAIN.eNodeB1.sctp  "HB Received 5:10.0.5.1"  ETV
vector 967  CAIN.eNodeB1.sctp  "HB ACK Received 2:10.0.5.1"  ETV
vector 958  CAIN.eNodeB1.sctp  "RTT 2:10.0.5.1"  ETV
vector 918  CAIN.eNodeB.sctp  "HB ACK Received 1:10.0.5.2"  ETV
vector 909  CAIN.eNodeB.sctp  "RTT 1:10.0.5.2"  ETV
vector 96  CAIN.eNodeB.nic.mac  receivedPacketFromLowerLayer:vector(packetBytes)  ETV
attr interpolationmode  none
attr source  receivedPacketFromLowerLayer
vector 1305  CAIN.eNodeB.sctp  "SendQueue of Association 6"  ETV
vector 1168  CAIN.eNodeB.sctp  "TSN Sent 6:10.0.5.2"  ETV
vector 1175  CAIN.eNodeB.sctp  "Outstanding Bytes 6:10.0.5.2"  ETV
vector 848  CAIN.eNodeB.sctp  "Outstanding Bytes 3:Total"  ETV
vector 1174  CAIN.eNodeB.sctp  "Queued Sent Bytes 6:10.0.5.2"  ETV
vector 847  CAIN.eNodeB.sctp  "Queued Sent Bytes 3:Total"  ETV
vector 963  CAIN.eNodeB1.sctp  "TSN Received 2:10.0.5.1"  ETV
vector 939  CAIN.eNodeB1.sctp  "Queued Received Bytes 2:Total"  ETV
vector 935  CAIN.eNodeB1.sctp  "Advertised Receiver Window 2"  ETV
vector 944  CAIN.eNodeB1.sctp  "Number of Total Gap Blocks Stored 2"  ETV
vector 945  CAIN.eNodeB1.sctp  "Number of Revokable Gap Blocks Stored 2"  ETV
vector 946  CAIN.eNodeB1.sctp  "Number of Non-Revokable Gap Blocks Stored 2"  ETV
vector 947  CAIN.eNodeB1.sctp  "Number of Duplicate TSNs Stored 2"  ETV
vector 951  CAIN.eNodeB1.sctp  "Length of SACK Sent 2"  ETV
vector 948  CAIN.eNodeB1.sctp  "Number of Revokable Gap Blocks Sent 2"  ETV
vector 949  CAIN.eNodeB1.sctp  "Number of Non-Revokable Gap Blocks Sent 2"  ETV
vector 950  CAIN.eNodeB1.sctp  "Number of Duplicate TSNs Sent 2"  ETV
vector 955  CAIN.eNodeB1.sctp  "End to End Delay of Association 2"  ETV
vector 199  CAIN.eNodeB1.x2App[0].client  rcvdPk:vector(packetBytes)  ETV
attr interpolationmode  none
attr source  rcvdPk
attr title  "packets received, vector(packetBytes)"
vector 1304  CAIN.eNodeB.sctp  "Number of Gap Blocks in Last SACK of Association 6"  ETV
vector 849  CAIN.eNodeB.sctp  "Number of Revokable Gap Blocks in SACK 3"  ETV
vector 850  CAIN.eNodeB.sctp  "Number of Non-Revokable Gap Blocks in SACK 3"  ETV
vector 1185  CAIN.eNodeB.sctp  "TSN Acked CumAck 6:10.0.5.2"  ETV
vector 1151  CAIN.eNodeB.sctp  "Number of Gap Acked Chunks in Last SACK 6:10.0.3.2"  ETV
vector 1152  CAIN.eNodeB.sctp  "Number of Non-Revokable Gap Acked Chunks in Last SACK 6:10.0.3.2"  ETV
vector 1153  CAIN.eNodeB.sctp  "Number of Gap Missed Chunks in Last SACK 6:10.0.3.2"  ETV
vector 1124  CAIN.eNodeB.sctp  "Number of Gap Acked Chunks in Last SACK 6:10.0.4.2"  ETV
vector 1125  CAIN.eNodeB.sctp  "Number of Non-Revokable Gap Acked Chunks in Last SACK 6:10.0.4.2"  ETV
vector 1126  CAIN.eNodeB.sctp  "Number of Gap Missed Chunks in Last SACK 6:10.0.4.2"  ETV
vector 1178  CAIN.eNodeB.sctp  "Number of Gap Acked Chunks in Last SACK 6:10.0.5.2"  ETV
vector 1179  CAIN.eNodeB.sctp  "Number of Non-Revokable Gap Acked Chunks in Last SACK 6:10.0.5.2"  ETV
vector 1180  CAIN.eNodeB.sctp  "Number of Gap Missed Chunks in Last SACK 6:10.0.5.2"  ETV
vector 859  CAIN.eNodeB.sctp  "Arwnd in Last SACK 3"  ETV
vector 1187  CAIN.eNodeB.sctp  "TSN PseudoCumAck 6:10.0.5.2"  ETV
vector 1188  CAIN.eNodeB.sctp  "TSN RTXPseudoCumAck 6:10.0.5.2"  ETV
vector 1181  CAIN.eNodeB.sctp  "Partial Bytes Acked 6:10.0.5.2"  ETV
vector 1333  CAIN.ueD2DTx[17].tcp  tcpRcvQueueBytes  ETV
vector 1320  CAIN.ueD2DTx[17].tcp  "advertised window"  ETV
vector 1319  CAIN.ueD2DTx[17].tcp  "receive window"  ETV
vector 1322  CAIN.ueD2DTx[17].tcp  "sent ack"  ETV
vector 749  CAIN.ueD2DTx[17].nic.pdcpRrc  receivedPacketFromUpperLayer:vector(packetBytes)  ETV
attr interpolationmode  none
attr source  receivedPacketFromUpperLayer
vector 752  CAIN.ueD2DTx[17].nic.pdcpRrc  sentPacketToLowerLayer:vector(packetBytes)  ETV
attr interpolationmode  none
attr source  sentPacketToLowerLayer
vector 753  CAIN.ueD2DTx[17].nic.mac  receivedPacketFromUpperLayer:vector(packetBytes)  ETV
attr interpolationmode  none
attr source  receivedPacketFromUpperLayer
vector 763  CAIN.ueD2DTx[17].nic.mac  CainHopMessageSent:vector  ETV
attr interpolationmode  none
attr title  "# of Sent CAIN hop message, vector"
vector 756  CAIN.ueD2DTx[17].nic.mac  sentPacketToLowerLayer:vector(packetBytes)  ETV
attr interpolationmode  none
attr source  sentPacketToLowerLayer
vector 562  CAIN.ueD2DTx[11].nic.mac  receivedPacketFromLowerLayer:vector(packetBytes)  ETV
attr interpolationmode  none
attr source  receivedPacketFromLowerLayer
vector 564  CAIN.ueD2DTx[11].nic.mac  sentPacketToLowerLayer:vector(packetBytes)  ETV
attr interpolationmode  none
attr source  sentPacketToLowerLayer
vector 498  CAIN.ueD2DTx[9].nic.mac  receivedPacketFromLowerLayer:vector(packetBytes)  ETV
attr interpolationmode  none
attr source  receivedPacketFromLowerLayer
vector 500  CAIN.ueD2DTx[9].nic.mac  sentPacketToLowerLayer:vector(packetBytes)  ETV
attr interpolationmode  none
attr source  sentPacketToLowerLayer
vector 111  CAIN.eNodeB.nic.mac  racpkt:vector  ETV
attr interpolationmode  none
attr title  "eNB received racpkt message, vector"
vector 112  CAIN.eNodeB.nic.mac  racDistanceSignal:vector  ETV
attr interpolationmode  none
attr title  "Rac distance to enb, vector"
vector 113  CAIN.eNodeB.nic.mac  racServedDevsSignal:vector  ETV
attr interpolationmode  none
attr title  "# of devices served on rac arriavall, vector"
vector 106  CAIN.eNodeB.nic.mac  DistanceSignal:vector  ETV
attr interpolationmode  none
attr title  "Distance to enb, vector"
vector 101  CAIN.eNodeB.nic.mac  CainHopMessage:vector  ETV
attr interpolationmode  none
attr title  "eNB received CAIN hop message, vector"
vector 98  CAIN.eNodeB.nic.mac  sentPacketToLowerLayer:vector(packetBytes)  ETV
attr interpolationmode  none
attr source  sentPacketToLowerLayer
vector 505  CAIN.ueD2DTx[9].nic.mac  DropedHopMessage:vector  ETV
attr interpolationmode  none
attr title  "Droped Hop CAIN message due to RB not available, vector"
vector 1357  CAIN.ueD2DTx[8].tcp  tcpRcvQueueBytes  ETV
vector 1344  CAIN.ueD2DTx[8].tcp  "advertised window"  ETV
vector 1343  CAIN.ueD2DTx[8].tcp  "receive window"  ETV
vector 1346  CAIN.ueD2DTx[8].tcp  "sent ack"  ETV
vector 461  CAIN.ueD2DTx[8].nic.pdcpRrc  receivedPacketFromUpperLayer:vector(packetBytes)  ETV
attr interpolationmode  none
attr source  receivedPacketFromUpperLayer
vector 464  CAIN.ueD2DTx[8].nic.pdcpRrc  sentPacketToLowerLayer:vector(packetBytes)  ETV
attr interpolationmode  none
attr source  sentPacketToLowerLayer
vector 465  CAIN.ueD2DTx[8].nic.mac  receivedPacketFromUpperLayer:vector(packetBytes)  ETV
attr interpolationmode  none
attr source  receivedPacketFromUpperLayer
vector 468  CAIN.ueD2DTx[8].nic.mac  sentPacketToLowerLayer:vector(packetBytes)  ETV
attr interpolationmode  none
attr source  sentPacketToLowerLayer
vector 466  CAIN.ueD2DTx[8].nic.mac  receivedPacketFromLowerLayer:vector(packetBytes)  ETV
attr interpolationmode  none
attr source  receivedPacketFromLowerLayer
vector 1381  CAIN.ueD2DTx[9].tcp  tcpRcvQueueBytes  ETV
vector 1368  CAIN.ueD2DTx[9].tcp  "advertised window"  ETV
vector 1367  CAIN.ueD2DTx[9].tcp  "receive window"  ETV
vector 1370  CAIN.ueD2DTx[9].tcp  "sent ack"  ETV
vector 493  CAIN.ueD2DTx[9].nic.pdcpRrc  receivedPacketFromUpperLayer:vector(packetBytes)  ETV
attr interpolationmode  none
attr source  receivedPacketFromUpperLayer
vector 496  CAIN.ueD2DTx[9].nic.pdcpRrc  sentPacketToLowerLayer:vector(packetBytes)  ETV
attr interpolationmode  none
attr source  sentPacketToLowerLayer
vector 497  CAIN.ueD2DTx[9].nic.mac  receivedPacketFromUpperLayer:vector(packetBytes)  ETV
attr interpolationmode  none
attr source  receivedPacketFromUpperLayer
vector 467  CAIN.ueD2DTx[8].nic.mac  sentPacketToUpperLayer:vector(packetBytes)  ETV
attr interpolationmode  none
attr source  sentPacketToUpperLayer
vector 115  CAIN.eNodeB.nic.phy  averageCqiUlvect:vector  ETV
attr source  averageCqiUlvect
attr title  "Average Cqi reported in UL, vector"
attr unit  cqi
vector 499  CAIN.ueD2DTx[9].nic.mac  sentPacketToUpperLayer:vector(packetBytes)  ETV
attr interpolationmode  none
attr source  sentPacketToUpperLayer
vector 99  CAIN.eNodeB.nic.mac  measuredItbs:vector  ETV
attr source  measuredItbs
attr title  "TBS index, vector"
attr unit  ""
vector 109  CAIN.eNodeB.nic.mac  ServedHopDevs:vector  ETV
attr interpolationmode  none
attr title  "# of devices served on hop forwarding, vector"
vector 1405  CAIN.ueD2DTx[7].tcp  tcpRcvQueueBytes  ETV
vector 1392  CAIN.ueD2DTx[7].tcp  "advertised window"  ETV
vector 1391  CAIN.ueD2DTx[7].tcp  "receive window"  ETV
vector 1394  CAIN.ueD2DTx[7].tcp  "sent ack"  ETV
vector 429  CAIN.ueD2DTx[7].nic.pdcpRrc  receivedPacketFromUpperLayer:vector(packetBytes)  ETV
attr interpolationmode  none
attr source  receivedPacketFromUpperLayer
vector 432  CAIN.ueD2DTx[7].nic.pdcpRrc  sentPacketToLowerLayer:vector(packetBytes)  ETV
attr interpolationmode  none
attr source  sentPacketToLowerLayer
vector 433  CAIN.ueD2DTx[7].nic.mac  receivedPacketFromUpperLayer:vector(packetBytes)  ETV
attr interpolationmode  none
attr source  receivedPacketFromUpperLayer
vector 442  CAIN.ueD2DTx[7].nic.mac  CainMessageSent:vector  ETV
attr interpolationmode  none
attr title  "# of Sent CAIN message, vector"
vector 436  CAIN.ueD2DTx[7].nic.mac  sentPacketToLowerLayer:vector(packetBytes)  ETV
attr interpolationmode  none
attr source  sentPacketToLowerLayer
vector 274  CAIN.ueD2DTx[2].nic.mac  receivedPacketFromLowerLayer:vector(packetBytes)  ETV
attr interpolationmode  none
attr source  receivedPacketFromLowerLayer
vector 276  CAIN.ueD2DTx[2].nic.mac  sentPacketToLowerLayer:vector(packetBytes)  ETV
attr interpolationmode  none
attr source  sentPacketToLowerLayer
vector 1429  CAIN.ueD2DTx[5].tcp  tcpRcvQueueBytes  ETV
vector 1416  CAIN.ueD2DTx[5].tcp  "advertised window"  ETV
vector 1415  CAIN.ueD2DTx[5].tcp  "receive window"  ETV
vector 1418  CAIN.ueD2DTx[5].tcp  "sent ack"  ETV
vector 365  CAIN.ueD2DTx[5].nic.pdcpRrc  receivedPacketFromUpperLayer:vector(packetBytes)  ETV
attr interpolationmode  none
attr source  receivedPacketFromUpperLayer
vector 368  CAIN.ueD2DTx[5].nic.pdcpRrc  sentPacketToLowerLayer:vector(packetBytes)  ETV
attr interpolationmode  none
attr source  sentPacketToLowerLayer
vector 369  CAIN.ueD2DTx[5].nic.mac  receivedPacketFromUpperLayer:vector(packetBytes)  ETV
attr interpolationmode  none
attr source  receivedPacketFromUpperLayer
vector 97  CAIN.eNodeB.nic.mac  sentPacketToUpperLayer:vector(packetBytes)  ETV
attr interpolationmode  none
attr source  sentPacketToUpperLayer
vector 379  CAIN.ueD2DTx[5].nic.mac  CainHopMessageSent:vector  ETV
attr interpolationmode  none
attr title  "# of Sent CAIN hop message, vector"
vector 372  CAIN.ueD2DTx[5].nic.mac  sentPacketToLowerLayer:vector(packetBytes)  ETV
attr interpolationmode  none
attr source  sentPacketToLowerLayer
vector 100  CAIN.eNodeB.nic.mac  CainMessage:vector  ETV
attr interpolationmode  none
attr title  "eNB received CAIN message, vector"
vector 1453  CAIN.ueD2DTx[10].tcp  tcpRcvQueueBytes  ETV
vector 1440  CAIN.ueD2DTx[10].tcp  "advertised window"  ETV
vector 1439  CAIN.ueD2DTx[10].tcp  "receive window"  ETV
vector 1442  CAIN.ueD2DTx[10].tcp  "sent ack"  ETV
vector 525  CAIN.ueD2DTx[10].nic.pdcpRrc  receivedPacketFromUpperLayer:vector(packetBytes)  ETV
attr interpolationmode  none
attr source  receivedPacketFromUpperLayer
vector 528  CAIN.ueD2DTx[10].nic.pdcpRrc  sentPacketToLowerLayer:vector(packetBytes)  ETV
attr interpolationmode  none
attr source  sentPacketToLowerLayer
vector 529  CAIN.ueD2DTx[10].nic.mac  receivedPacketFromUpperLayer:vector(packetBytes)  ETV
attr interpolationmode  none
attr source  receivedPacketFromUpperLayer
vector 1477  CAIN.ueD2DTx[13].tcp  tcpRcvQueueBytes  ETV
vector 1464  CAIN.ueD2DTx[13].tcp  "advertised window"  ETV
vector 1463  CAIN.ueD2DTx[13].tcp  "receive window"  ETV
vector 1466  CAIN.ueD2DTx[13].tcp  "sent ack"  ETV
vector 621  CAIN.ueD2DTx[13].nic.pdcpRrc  receivedPacketFromUpperLayer:vector(packetBytes)  ETV
attr interpolationmode  none
attr source  receivedPacketFromUpperLayer
vector 624  CAIN.ueD2DTx[13].nic.pdcpRrc  sentPacketToLowerLayer:vector(packetBytes)  ETV
attr interpolationmode  none
attr source  sentPacketToLowerLayer
vector 625  CAIN.ueD2DTx[13].nic.mac  receivedPacketFromUpperLayer:vector(packetBytes)  ETV
attr interpolationmode  none
attr source  receivedPacketFromUpperLayer
vector 539  CAIN.ueD2DTx[10].nic.mac  CainHopMessageSent:vector  ETV
attr interpolationmode  none
attr title  "# of Sent CAIN hop message, vector"
vector 532  CAIN.ueD2DTx[10].nic.mac  sentPacketToLowerLayer:vector(packetBytes)  ETV
attr interpolationmode  none
attr source  sentPacketToLowerLayer
vector 635  CAIN.ueD2DTx[13].nic.mac  CainHopMessageSent:vector  ETV
attr interpolationmode  none
attr title  "# of Sent CAIN hop message, vector"
vector 628  CAIN.ueD2DTx[13].nic.mac  sentPacketToLowerLayer:vector(packetBytes)  ETV
attr interpolationmode  none
attr source  sentPacketToLowerLayer
vector 818  CAIN.ueD2DTx[19].nic.mac  receivedPacketFromLowerLayer:vector(packetBytes)  ETV
attr interpolationmode  none
attr source  receivedPacketFromLowerLayer
vector 820  CAIN.ueD2DTx[19].nic.mac  sentPacketToLowerLayer:vector(packetBytes)  ETV
attr interpolationmode  none
attr source  sentPacketToLowerLayer
vector 280  CAIN.ueD2DTx[2].nic.mac  DropedCainMessage:vector  ETV
attr interpolationmode  none
attr title  "Droped CAIN message due to RB not available, vector"
vector 1501  CAIN.ueD2DTx[0].tcp  tcpRcvQueueBytes  ETV
vector 1488  CAIN.ueD2DTx[0].tcp  "advertised window"  ETV
vector 1487  CAIN.ueD2DTx[0].tcp  "receive window"  ETV
vector 1490  CAIN.ueD2DTx[0].tcp  "sent ack"  ETV
vector 205  CAIN.ueD2DTx[0].nic.pdcpRrc  receivedPacketFromUpperLayer:vector(packetBytes)  ETV
attr interpolationmode  none
attr source  receivedPacketFromUpperLayer
vector 208  CAIN.ueD2DTx[0].nic.pdcpRrc  sentPacketToLowerLayer:vector(packetBytes)  ETV
attr interpolationmode  none
attr source  sentPacketToLowerLayer
vector 209  CAIN.ueD2DTx[0].nic.mac  receivedPacketFromUpperLayer:vector(packetBytes)  ETV
attr interpolationmode  none
attr source  receivedPacketFromUpperLayer
vector 219  CAIN.ueD2DTx[0].nic.mac  CainHopMessageSent:vector  ETV
attr interpolationmode  none
attr title  "# of Sent CAIN hop message, vector"
vector 212  CAIN.ueD2DTx[0].nic.mac  sentPacketToLowerLayer:vector(packetBytes)  ETV
attr interpolationmode  none
attr source  sentPacketToLowerLayer
vector 690  CAIN.ueD2DTx[15].nic.mac  receivedPacketFromLowerLayer:vector(packetBytes)  ETV
attr interpolationmode  none
attr source  receivedPacketFromLowerLayer
vector 692  CAIN.ueD2DTx[15].nic.mac  sentPacketToLowerLayer:vector(packetBytes)  ETV
attr interpolationmode  none
attr source  sentPacketToLowerLayer
vector 92  CAIN.eNodeB.nic.pdcpRrc  receivedPacketFromLowerLayer:vector(packetBytes)  ETV
attr interpolationmode  none
attr source  receivedPacketFromLowerLayer
vector 93  CAIN.eNodeB.nic.pdcpRrc  sentPacketToUpperLayer:vector(packetBytes)  ETV
attr interpolationmode  none
attr source  sentPacketToUpperLayer
vector 86  CAIN.eNodeB.udp  sentPk:vector(packetBytes)  ETV
attr interpolationmode  none
attr source  sentPk
attr title  "packets sent, vector(packetBytes)"
vector 145  CAIN.eNodeB1.udp  rcvdPk:vector(packetBytes)  ETV
attr interpolationmode  none
attr source  rcvdPk
attr title  "packets received, vector(packetBytes)"
vector 146  CAIN.eNodeB1.udp  passedUpPk:vector(count)  ETV
attr interpolationmode  none
attr title  "packets passed up, vector(count)"
vector 697  CAIN.ueD2DTx[15].nic.mac  DropedHopMessage:vector  ETV
attr interpolationmode  none
attr title  "Droped Hop CAIN message due to RB not available, vector"
vector 281  CAIN.ueD2DTx[2].nic.mac  DropedHopMessage:vector  ETV
attr interpolationmode  none
attr title  "Droped Hop CAIN message due to RB not available, vector"
vector 1525  CAIN.ueD2DTx[16].tcp  tcpRcvQueueBytes  ETV
vector 1512  CAIN.ueD2DTx[16].tcp  "advertised window"  ETV
vector 1511  CAIN.ueD2DTx[16].tcp  "receive window"  ETV
vector 1514  CAIN.ueD2DTx[16].tcp  "sent ack"  ETV
vector 717  CAIN.ueD2DTx[16].nic.pdcpRrc  receivedPacketFromUpperLayer:vector(packetBytes)  ETV
attr interpolationmode  none
attr source  receivedPacketFromUpperLayer
vector 720  CAIN.ueD2DTx[16].nic.pdcpRrc  sentPacketToLowerLayer:vector(packetBytes)  ETV
attr interpolationmode  none
attr source  sentPacketToLowerLayer
vector 721  CAIN.ueD2DTx[16].nic.mac  receivedPacketFromUpperLayer:vector(packetBytes)  ETV
attr interpolationmode  none
attr source  receivedPacketFromUpperLayer
vector 731  CAIN.ueD2DTx[16].nic.mac  CainHopMessageSent:vector  ETV
attr interpolationmode  none
attr title  "# of Sent CAIN hop message, vector"
vector 724  CAIN.ueD2DTx[16].nic.mac  sentPacketToLowerLayer:vector(packetBytes)  ETV
attr interpolationmode  none
attr source  sentPacketToLowerLayer
vector 149  CAIN.eNodeB1.nic.pdcpRrc  receivedPacketFromUpperLayer:vector(packetBytes)  ETV
attr interpolationmode  none
attr source  receivedPacketFromUpperLayer
vector 152  CAIN.eNodeB1.nic.pdcpRrc  sentPacketToLowerLayer:vector(packetBytes)  ETV
attr interpolationmode  none
attr source  sentPacketToLowerLayer
vector 1301  CAIN.eNodeB1.sctp  "SendQueue of Association 5"  ETV
vector 1065  CAIN.eNodeB1.sctp  "TSN Sent 5:10.0.5.1"  ETV
vector 1072  CAIN.eNodeB1.sctp  "Outstanding Bytes 5:10.0.5.1"  ETV
vector 870  CAIN.eNodeB1.sctp  "Outstanding Bytes 4:Total"  ETV
vector 1071  CAIN.eNodeB1.sctp  "Queued Sent Bytes 5:10.0.5.1"  ETV
vector 869  CAIN.eNodeB1.sctp  "Queued Sent Bytes 4:Total"  ETV
vector 153  CAIN.eNodeB1.nic.mac  receivedPacketFromUpperLayer:vector(packetBytes)  ETV
attr interpolationmode  none
attr source  receivedPacketFromUpperLayer
vector 914  CAIN.eNodeB.sctp  "TSN Received 1:10.0.5.2"  ETV
vector 890  CAIN.eNodeB.sctp  "Queued Received Bytes 1:Total"  ETV
vector 886  CAIN.eNodeB.sctp  "Advertised Receiver Window 1"  ETV
vector 895  CAIN.eNodeB.sctp  "Number of Total Gap Blocks Stored 1"  ETV
vector 896  CAIN.eNodeB.sctp  "Number of Revokable Gap Blocks Stored 1"  ETV
vector 897  CAIN.eNodeB.sctp  "Number of Non-Revokable Gap Blocks Stored 1"  ETV
vector 898  CAIN.eNodeB.sctp  "Number of Duplicate TSNs Stored 1"  ETV
vector 902  CAIN.eNodeB.sctp  "Length of SACK Sent 1"  ETV
vector 899  CAIN.eNodeB.sctp  "Number of Revokable Gap Blocks Sent 1"  ETV
vector 900  CAIN.eNodeB.sctp  "Number of Non-Revokable Gap Blocks Sent 1"  ETV
vector 901  CAIN.eNodeB.sctp  "Number of Duplicate TSNs Sent 1"  ETV
vector 906  CAIN.eNodeB.sctp  "End to End Delay of Association 1"  ETV
vector 141  CAIN.eNodeB.x2App[0].client  rcvdPk:vector(packetBytes)  ETV
attr interpolationmode  none
attr source  rcvdPk
attr title  "packets received, vector(packetBytes)"
vector 1300  CAIN.eNodeB1.sctp  "Number of Gap Blocks in Last SACK of Association 5"  ETV
vector 871  CAIN.eNodeB1.sctp  "Number of Revokable Gap Blocks in SACK 4"  ETV
vector 872  CAIN.eNodeB1.sctp  "Number of Non-Revokable Gap Blocks in SACK 4"  ETV
vector 1082  CAIN.eNodeB1.sctp  "TSN Acked CumAck 5:10.0.5.1"  ETV
vector 1048  CAIN.eNodeB1.sctp  "Number of Gap Acked Chunks in Last SACK 5:10.0.2.2"  ETV
vector 1049  CAIN.eNodeB1.sctp  "Number of Non-Revokable Gap Acked Chunks in Last SACK 5:10.0.2.2"  ETV
vector 1050  CAIN.eNodeB1.sctp  "Number of Gap Missed Chunks in Last SACK 5:10.0.2.2"  ETV
vector 1021  CAIN.eNodeB1.sctp  "Number of Gap Acked Chunks in Last SACK 5:10.0.4.1"  ETV
vector 1022  CAIN.eNodeB1.sctp  "Number of Non-Revokable Gap Acked Chunks in Last SACK 5:10.0.4.1"  ETV
vector 1023  CAIN.eNodeB1.sctp  "Number of Gap Missed Chunks in Last SACK 5:10.0.4.1"  ETV
vector 1075  CAIN.eNodeB1.sctp  "Number of Gap Acked Chunks in Last SACK 5:10.0.5.1"  ETV
vector 1076  CAIN.eNodeB1.sctp  "Number of Non-Revokable Gap Acked Chunks in Last SACK 5:10.0.5.1"  ETV
vector 1077  CAIN.eNodeB1.sctp  "Number of Gap Missed Chunks in Last SACK 5:10.0.5.1"  ETV
vector 881  CAIN.eNodeB1.sctp  "Arwnd in Last SACK 4"  ETV
vector 1084  CAIN.eNodeB1.sctp  "TSN PseudoCumAck 5:10.0.5.1"  ETV
vector 1085  CAIN.eNodeB1.sctp  "TSN RTXPseudoCumAck 5:10.0.5.1"  ETV
vector 1078  CAIN.eNodeB1.sctp  "Partial Bytes Acked 5:10.0.5.1"  ETV
vector 1549  CAIN.ueD2DTx[18].tcp  tcpRcvQueueBytes  ETV
vector 1536  CAIN.ueD2DTx[18].tcp  "advertised window"  ETV
vector 1535  CAIN.ueD2DTx[18].tcp  "receive window"  ETV
vector 1538  CAIN.ueD2DTx[18].tcp  "sent ack"  ETV
vector 781  CAIN.ueD2DTx[18].nic.pdcpRrc  receivedPacketFromUpperLayer:vector(packetBytes)  ETV
attr interpolationmode  none
attr source  receivedPacketFromUpperLayer
vector 784  CAIN.ueD2DTx[18].nic.pdcpRrc  sentPacketToLowerLayer:vector(packetBytes)  ETV
attr interpolationmode  none
attr source  sentPacketToLowerLayer
vector 785  CAIN.ueD2DTx[18].nic.mac  receivedPacketFromUpperLayer:vector(packetBytes)  ETV
attr interpolationmode  none
attr source  receivedPacketFromUpperLayer
vector 795  CAIN.ueD2DTx[18].nic.mac  CainHopMessageSent:vector  ETV
attr interpolationmode  none
attr title  "# of Sent CAIN hop message, vector"
vector 788  CAIN.ueD2DTx[18].nic.mac  sentPacketToLowerLayer:vector(packetBytes)  ETV
attr interpolationmode  none
attr source  sentPacketToLowerLayer
vector 1573  CAIN.ueD2DTx[14].tcp  tcpRcvQueueBytes  ETV
vector 1560  CAIN.ueD2DTx[14].tcp  "advertised window"  ETV
vector 1559  CAIN.ueD2DTx[14].tcp  "receive window"  ETV
vector 1562  CAIN.ueD2DTx[14].tcp  "sent ack"  ETV
vector 653  CAIN.ueD2DTx[14].nic.pdcpRrc  receivedPacketFromUpperLayer:vector(packetBytes)  ETV
attr interpolationmode  none
attr source  receivedPacketFromUpperLayer
vector 656  CAIN.ueD2DTx[14].nic.pdcpRrc  sentPacketToLowerLayer:vector(packetBytes)  ETV
attr interpolationmode  none
attr source  sentPacketToLowerLayer
vector 657  CAIN.ueD2DTx[14].nic.mac  receivedPacketFromUpperLayer:vector(packetBytes)  ETV
attr interpolationmode  none
attr source  receivedPacketFromUpperLayer
vector 667  CAIN.ueD2DTx[14].nic.mac  CainHopMessageSent:vector  ETV
attr interpolationmode  none
attr title  "# of Sent CAIN hop message, vector"
vector 660  CAIN.ueD2DTx[14].nic.mac  sentPacketToLowerLayer:vector(packetBytes)  ETV
attr interpolationmode  none
attr source  sentPacketToLowerLayer
vector 154  CAIN.eNodeB1.nic.mac  receivedPacketFromLowerLayer:vector(packetBytes)  ETV
attr interpolationmode  none
attr source  receivedPacketFromLowerLayer
vector 1597  CAIN.ueD2DTx[11].tcp  tcpRcvQueueBytes  ETV
vector 1584  CAIN.ueD2DTx[11].tcp  "advertised window"  ETV
vector 1583  CAIN.ueD2DTx[11].tcp  "receive window"  ETV
vector 1586  CAIN.ueD2DTx[11].tcp  "sent ack"  ETV
vector 557  CAIN.ueD2DTx[11].nic.pdcpRrc  receivedPacketFromUpperLayer:vector(packetBytes)  ETV
attr interpolationmode  none
attr source  receivedPacketFromUpperLayer
vector 560  CAIN.ueD2DTx[11].nic.pdcpRrc  sentPacketToLowerLayer:vector(packetBytes)  ETV
attr interpolationmode  none
attr source  sentPacketToLowerLayer
vector 561  CAIN.ueD2DTx[11].nic.mac  receivedPacketFromUpperLayer:vector(packetBytes)  ETV
attr interpolationmode  none
attr source  receivedPacketFromUpperLayer
vector 658  CAIN.ueD2DTx[14].nic.mac  receivedPacketFromLowerLayer:vector(packetBytes)  ETV
attr interpolationmode  none
attr source  receivedPacketFromLowerLayer
vector 626  CAIN.ueD2DTx[13].nic.mac  receivedPacketFromLowerLayer:vector(packetBytes)  ETV
attr interpolationmode  none
attr source  receivedPacketFromLowerLayer
vector 1621  CAIN.ueD2DTx[4].tcp  tcpRcvQueueBytes  ETV
vector 1608  CAIN.ueD2DTx[4].tcp  "advertised window"  ETV
vector 1607  CAIN.ueD2DTx[4].tcp  "receive window"  ETV
vector 1610  CAIN.ueD2DTx[4].tcp  "sent ack"  ETV
vector 333  CAIN.ueD2DTx[4].nic.pdcpRrc  receivedPacketFromUpperLayer:vector(packetBytes)  ETV
attr interpolationmode  none
attr source  receivedPacketFromUpperLayer
vector 336  CAIN.ueD2DTx[4].nic.pdcpRrc  sentPacketToLowerLayer:vector(packetBytes)  ETV
attr interpolationmode  none
attr source  sentPacketToLowerLayer
vector 337  CAIN.ueD2DTx[4].nic.mac  receivedPacketFromUpperLayer:vector(packetBytes)  ETV
attr interpolationmode  none
attr source  receivedPacketFromUpperLayer
vector 347  CAIN.ueD2DTx[4].nic.mac  CainHopMessageSent:vector  ETV
attr interpolationmode  none
attr title  "# of Sent CAIN hop message, vector"
vector 340  CAIN.ueD2DTx[4].nic.mac  sentPacketToLowerLayer:vector(packetBytes)  ETV
attr interpolationmode  none
attr source  sentPacketToLowerLayer
vector 1645  CAIN.ueD2DTx[12].tcp  tcpRcvQueueBytes  ETV
vector 1632  CAIN.ueD2DTx[12].tcp  "advertised window"  ETV
vector 1631  CAIN.ueD2DTx[12].tcp  "receive window"  ETV
vector 1634  CAIN.ueD2DTx[12].tcp  "sent ack"  ETV
vector 589  CAIN.ueD2DTx[12].nic.pdcpRrc  receivedPacketFromUpperLayer:vector(packetBytes)  ETV
attr interpolationmode  none
attr source  receivedPacketFromUpperLayer
vector 592  CAIN.ueD2DTx[12].nic.pdcpRrc  sentPacketToLowerLayer:vector(packetBytes)  ETV
attr interpolationmode  none
attr source  sentPacketToLowerLayer
vector 593  CAIN.ueD2DTx[12].nic.mac  receivedPacketFromUpperLayer:vector(packetBytes)  ETV
attr interpolationmode  none
attr source  receivedPacketFromUpperLayer
vector 596  CAIN.ueD2DTx[12].nic.mac  sentPacketToLowerLayer:vector(packetBytes)  ETV
attr interpolationmode  none
attr source  sentPacketToLowerLayer
vector 1669  CAIN.ueD2DTx[6].tcp  tcpRcvQueueBytes  ETV
vector 1656  CAIN.ueD2DTx[6].tcp  "advertised window"  ETV
vector 1655  CAIN.ueD2DTx[6].tcp  "receive window"  ETV
vector 1658  CAIN.ueD2DTx[6].tcp  "sent ack"  ETV
vector 397  CAIN.ueD2DTx[6].nic.pdcpRrc  receivedPacketFromUpperLayer:vector(packetBytes)  ETV
attr interpolationmode  none
attr source  receivedPacketFromUpperLayer
vector 400  CAIN.ueD2DTx[6].nic.pdcpRrc  sentPacketToLowerLayer:vector(packetBytes)  ETV
attr interpolationmode  none
attr source  sentPacketToLowerLayer
vector 401  CAIN.ueD2DTx[6].nic.mac  receivedPacketFromUpperLayer:vector(packetBytes)  ETV
attr interpolationmode  none
attr source  receivedPacketFromUpperLayer
vector 404  CAIN.ueD2DTx[6].nic.mac  sentPacketToLowerLayer:vector(packetBytes)  ETV
attr interpolationmode  none
attr source  sentPacketToLowerLayer
vector 169  CAIN.eNodeB1.nic.mac  racpkt:vector  ETV
attr interpolationmode  none
attr title  "eNB received racpkt message, vector"
vector 170  CAIN.eNodeB1.nic.mac  racDistanceSignal:vector  ETV
attr interpolationmode  none
attr title  "Rac distance to enb, vector"
vector 171  CAIN.eNodeB1.nic.mac  racServedDevsSignal:vector  ETV
attr interpolationmode  none
attr title  "# of devices served on rac arriavall, vector"
vector 156  CAIN.eNodeB1.nic.mac  sentPacketToLowerLayer:vector(packetBytes)  ETV
attr interpolationmode  none
attr source  sentPacketToLowerLayer
vector 594  CAIN.ueD2DTx[12].nic.mac  receivedPacketFromLowerLayer:vector(packetBytes)  ETV
attr interpolationmode  none
attr source  receivedPacketFromLowerLayer
vector 402  CAIN.ueD2DTx[6].nic.mac  receivedPacketFromLowerLayer:vector(packetBytes)  ETV
attr interpolationmode  none
attr source  receivedPacketFromLowerLayer
vector 1693  CAIN.ueD2DTx[1].tcp  tcpRcvQueueBytes  ETV
vector 1680  CAIN.ueD2DTx[1].tcp  "advertised window"  ETV
vector 1679  CAIN.ueD2DTx[1].tcp  "receive window"  ETV
vector 1682  CAIN.ueD2DTx[1].tcp  "sent ack"  ETV
vector 237  CAIN.ueD2DTx[1].nic.pdcpRrc  receivedPacketFromUpperLayer:vector(packetBytes)  ETV
attr interpolationmode  none
attr source  receivedPacketFromUpperLayer
vector 240  CAIN.ueD2DTx[1].nic.pdcpRrc  sentPacketToLowerLayer:vector(packetBytes)  ETV
attr interpolationmode  none
attr source  sentPacketToLowerLayer
vector 241  CAIN.ueD2DTx[1].nic.mac  receivedPacketFromUpperLayer:vector(packetBytes)  ETV
attr interpolationmode  none
attr source  receivedPacketFromUpperLayer
vector 251  CAIN.ueD2DTx[1].nic.mac  CainHopMessageSent:vector  ETV
attr interpolationmode  none
attr title  "# of Sent CAIN hop message, vector"
vector 244  CAIN.ueD2DTx[1].nic.mac  sentPacketToLowerLayer:vector(packetBytes)  ETV
attr interpolationmode  none
attr source  sentPacketToLowerLayer
vector 1717  CAIN.ueD2DTx[15].tcp  tcpRcvQueueBytes  ETV
vector 1704  CAIN.ueD2DTx[15].tcp  "advertised window"  ETV
vector 1703  CAIN.ueD2DTx[15].tcp  "receive window"  ETV
vector 1706  CAIN.ueD2DTx[15].tcp  "sent ack"  ETV
vector 685  CAIN.ueD2DTx[15].nic.pdcpRrc  receivedPacketFromUpperLayer:vector(packetBytes)  ETV
attr interpolationmode  none
attr source  receivedPacketFromUpperLayer
vector 688  CAIN.ueD2DTx[15].nic.pdcpRrc  sentPacketToLowerLayer:vector(packetBytes)  ETV
attr interpolationmode  none
attr source  sentPacketToLowerLayer
vector 689  CAIN.ueD2DTx[15].nic.mac  receivedPacketFromUpperLayer:vector(packetBytes)  ETV
attr interpolationmode  none
attr source  receivedPacketFromUpperLayer
vector 1741  CAIN.ueD2DTx[2].tcp  tcpRcvQueueBytes  ETV
vector 1728  CAIN.ueD2DTx[2].tcp  "advertised window"  ETV
vector 1727  CAIN.ueD2DTx[2].tcp  "receive window"  ETV
vector 1730  CAIN.ueD2DTx[2].tcp  "sent ack"  ETV
vector 269  CAIN.ueD2DTx[2].nic.pdcpRrc  receivedPacketFromUpperLayer:vector(packetBytes)  ETV
attr interpolationmode  none
attr source  receivedPacketFromUpperLayer
vector 272  CAIN.ueD2DTx[2].nic.pdcpRrc  sentPacketToLowerLayer:vector(packetBytes)  ETV
attr interpolationmode  none
attr source  sentPacketToLowerLayer
vector 273  CAIN.ueD2DTx[2].nic.mac  receivedPacketFromUpperLayer:vector(packetBytes)  ETV
attr interpolationmode  none
attr source  receivedPacketFromUpperLayer
vector 1765  CAIN.ueD2DTx[19].tcp  tcpRcvQueueBytes  ETV
vector 1752  CAIN.ueD2DTx[19].tcp  "advertised window"  ETV
vector 1751  CAIN.ueD2DTx[19].tcp  "receive window"  ETV
vector 1754  CAIN.ueD2DTx[19].tcp  "sent ack"  ETV
vector 813  CAIN.ueD2DTx[19].nic.pdcpRrc  receivedPacketFromUpperLayer:vector(packetBytes)  ETV
attr interpolationmode  none
attr source  receivedPacketFromUpperLayer
vector 816  CAIN.ueD2DTx[19].nic.pdcpRrc  sentPacketToLowerLayer:vector(packetBytes)  ETV
attr interpolationmode  none
attr source  sentPacketToLowerLayer
vector 817  CAIN.ueD2DTx[19].nic.mac  receivedPacketFromUpperLayer:vector(packetBytes)  ETV
attr interpolationmode  none
attr source  receivedPacketFromUpperLayer
vector 691  CAIN.ueD2DTx[15].nic.mac  sentPacketToUpperLayer:vector(packetBytes)  ETV
attr interpolationmode  none
attr source  sentPacketToUpperLayer
vector 826  CAIN.ueD2DTx[19].nic.mac  CainMessageSent:vector  ETV
attr interpolationmode  none
attr title  "# of Sent CAIN message, vector"
vector 117  CAIN.eNodeB.pppIf.queue  rcvdPk:vector(packetBytes)  ETV
attr interpolationmode  none
attr title  "received packets, vector(packetBytes)"
vector 119  CAIN.eNodeB.pppIf.queue  queueingTime:vector  ETV
attr interpolationmode  none
attr title  "queueing time, vector"
vector 126  CAIN.eNodeB.pppIf.ppp  rcvdPkFromHL:vector(packetBytes)  ETV
attr interpolationmode  none
attr source  packetReceivedFromUpper
attr title  "packets received from higher layer, vector(packetBytes)"
vector 122  CAIN.eNodeB.pppIf.ppp  txPk:vector(packetBytes)  ETV
attr interpolationmode  none
attr source  packetSentToLower
attr title  "packets transmitted, vector(packetBytes)"
vector 275  CAIN.ueD2DTx[2].nic.mac  sentPacketToUpperLayer:vector(packetBytes)  ETV
attr interpolationmode  none
attr source  sentPacketToUpperLayer
vector 108  CAIN.eNodeB.nic.mac  ServedDevs:vector  ETV
attr interpolationmode  none
attr title  "# of devices served on cain forwarding, vector"
vector 59  CAIN.pgw.ppp[0].ppp  rxPkOk:vector(packetBytes)  ETV
attr interpolationmode  none
attr source  rxPkOk
attr title  "packets received OK, vector(packetBytes)"
vector 63  CAIN.pgw.ppp[0].ppp  passedUpPk:vector(packetBytes)  ETV
attr interpolationmode  none
attr source  packetSentToUpper
attr title  "packets passed to higher layer, vector(packetBytes)"
vector 44  CAIN.pgw.udp  rcvdPk:vector(packetBytes)  ETV
attr interpolationmode  none
attr source  rcvdPk
attr title  "packets received, vector(packetBytes)"
vector 45  CAIN.pgw.udp  passedUpPk:vector(count)  ETV
attr interpolationmode  none
attr title  "packets passed up, vector(count)"
vector 43  CAIN.pgw.udp  sentPk:vector(packetBytes)  ETV
attr interpolationmode  none
attr source  sentPk
attr title  "packets sent, vector(packetBytes)"
vector 64  CAIN.pgw.ppp[1].queue  rcvdPk:vector(packetBytes)  ETV
attr interpolationmode  none
attr title  "received packets, vector(packetBytes)"
vector 66  CAIN.pgw.ppp[1].queue  queueingTime:vector  ETV
attr interpolationmode  none
attr title  "queueing time, vector"
vector 73  CAIN.pgw.ppp[1].ppp  rcvdPkFromHL:vector(packetBytes)  ETV
attr interpolationmode  none
attr source  packetReceivedFromUpper
attr title  "packets received from higher layer, vector(packetBytes)"
vector 69  CAIN.pgw.ppp[1].ppp  txPk:vector(packetBytes)  ETV
attr interpolationmode  none
attr source  packetSentToLower
attr title  "packets transmitted, vector(packetBytes)"
vector 181  CAIN.eNodeB1.pppIf.ppp  rxPkOk:vector(packetBytes)  ETV
attr interpolationmode  none
attr source  rxPkOk
attr title  "packets received OK, vector(packetBytes)"
vector 185  CAIN.eNodeB1.pppIf.ppp  passedUpPk:vector(packetBytes)  ETV
attr interpolationmode  none
attr source  packetSentToUpper
attr title  "packets passed to higher layer, vector(packetBytes)"
vector 1789  CAIN.ueD2DTx[3].tcp  tcpRcvQueueBytes  ETV
vector 1776  CAIN.ueD2DTx[3].tcp  "advertised window"  ETV
vector 1775  CAIN.ueD2DTx[3].tcp  "receive window"  ETV
vector 1778  CAIN.ueD2DTx[3].tcp  "sent ack"  ETV
vector 301  CAIN.ueD2DTx[3].nic.pdcpRrc  receivedPacketFromUpperLayer:vector(packetBytes)  ETV
attr interpolationmode  none
attr source  receivedPacketFromUpperLayer
vector 304  CAIN.ueD2DTx[3].nic.pdcpRrc  sentPacketToLowerLayer:vector(packetBytes)  ETV
attr interpolationmode  none
attr source  sentPacketToLowerLayer
vector 305  CAIN.ueD2DTx[3].nic.mac  receivedPacketFromUpperLayer:vector(packetBytes)  ETV
attr interpolationmode  none
attr source  receivedPacketFromUpperLayer
vector 762  CAIN.ueD2DTx[17].nic.mac  CainMessageSent:vector  ETV
attr interpolationmode  none
attr title  "# of Sent CAIN message, vector"
vector 173  CAIN.eNodeB1.nic.phy  averageCqiUlvect:vector  ETV
attr source  averageCqiUlvect
attr title  "Average Cqi reported in UL, vector"
attr unit  cqi
vector 155  CAIN.eNodeB1.nic.mac  sentPacketToUpperLayer:vector(packetBytes)  ETV
attr interpolationmode  none
attr source  sentPacketToUpperLayer
vector 157  CAIN.eNodeB1.nic.mac  measuredItbs:vector  ETV
attr source  measuredItbs
attr title  "TBS index, vector"
attr unit  ""
vector 150  CAIN.eNodeB1.nic.pdcpRrc  receivedPacketFromLowerLayer:vector(packetBytes)  ETV
attr interpolationmode  none
attr source  receivedPacketFromLowerLayer
vector 151  CAIN.eNodeB1.nic.pdcpRrc  sentPacketToUpperLayer:vector(packetBytes)  ETV
attr interpolationmode  none
attr source  sentPacketToUpperLayer
vector 538  CAIN.ueD2DTx[10].nic.mac  CainMessageSent:vector  ETV
attr interpolationmode  none
attr title  "# of Sent CAIN message, vector"
vector 210  CAIN.ueD2DTx[0].nic.mac  receivedPacketFromLowerLayer:vector(packetBytes)  ETV
attr interpolationmode  none
attr source  receivedPacketFromLowerLayer
vector 627  CAIN.ueD2DTx[13].nic.mac  sentPacketToUpperLayer:vector(packetBytes)  ETV
attr interpolationmode  none
attr source  sentPacketToUpperLayer
8	0	0	0
9	0	0	0
24	0	0	0
25	0	0	0
35	0	0	0
36	0	0	0
43	5792	0.0980001132	52
43	6057	0.1020001132	52
43	149358	3.0350001132	52
44	5790	0.0980001132	52
44	6055	0.1020001132	52
44	149356	3.0350001132	52
45	5790	0.0980001132	1
45	6055	0.1020001132	2
45	149356	3.0350001132	3
56	0	0	0
57	0	0	0
59	5788	0.0980001132	79
59	6053	0.1020001132	79
59	149354	3.0350001132	79
63	5788	0.0980001132	72
63	6053	0.1020001132	72
63	149354	3.0350001132	72
64	5794	0.0980001132	72
64	6059	0.1020001132	72
64	149360	3.0350001132	72
66	5794	0.0980001132	0
66	6059	0.1020001132	0
66	149360	3.0350001132	0
67	0	0	0
68	0	0	0
68	5795	0.0980001132	1
68	5796	0.0980001764	0
68	6060	0.1020001132	1
68	6061	0.1020001764	0
68	149361	3.0350001132	1
68	149362	3.0350001764	0
69	5795	0.0980001132	79
69	6060	0.1020001132	79
69	149361	3.0350001132	79
73	5795	0.0980001132	72
73	6060	0.1020001132	72
73	149361	3.0350001132	72
78	0	0	0
79	0	0	0
86	2034	0.035	52
86	2220	0.037	52
86	5697	0.098	52
86	6014	0.102	52
86	149302	3.035	52
92	2027	0.035	45
92	2213	0.037	45
92	5693	0.098	45
92	6010	0.102	45
92	149298	3.035	45
93	2027	0.035	44
93	2213	0.037	44
93	5693	0.098	44
93	6010	0.102	44
93	149298	3.035	44
96	378	0.002	0
96	381	0.002	0
96	384	0.002	0
96	387	0.002	0
96	390	0.002	0
96	393	0.002	0
96	396	0.002	0
96	399	0.002	0
96	402	0.002	0
96	405	0.002	0
96	408	0.002	0
96	411	0.002	0
96	414	0.002	0
96	417	0.002	0
96	420	0.002	0
96	423	0.002	0
96	426	0.002	0
96	429	0.002	0
96	432	0.002	0
96	435	0.002	0
96	739	0.008	0
96	742	0.008	0
96	745	0.008	0
96	748	0.008	0
96	751	0.008	0
96	754	0.008	0
96	757	0.008	0
96	760	0.008	0
96	992	0.014	0
96	995	0.014	0
96	998	0.014	0
96	1001	0.014	0
96	1004	0.014	0
96	1007	0.014	0
96	1010	0.014	0
96	1013	0.014	0
96	1094	0.017	0
96	1248	0.02	0
96	1251	0.02	0
96	1254	0.02	0
96	1257	0.02	0
96	1260	0.02	0
96	1263	0.02	0
96	1266	0.02	0
96	1269	0.02	0
96	1335	0.022	0
96	1338	0.022	0
96	1512	0.025	0
96	1544	0.026	0
96	1547	0.026	0
96	1550	0.026	0
96	1553	0.026	0
96	1556	0.026	0
96	1559	0.026	0
96	1562	0.026	0
96	1565	0.026	0
96	1568	0.026	0
96	1601	0.027	0
96	1604	0.027	0
96	1673	0.029	0
96	1675	0.029	0
96	1740	0.03	0
96	1836	0.031	0
96	1880	0.032	0
96	1883	0.032	0
96	1886	0.032	0
96	1889	0.032	0
96	1892	0.032	0
96	1895	0.032	0
96	1898	0.032	0
96	1901	0.032	0
96	1906	0.032	0
96	1908	0.032	0
96	1911	0.032	0
96	2017	0.034	0
96	2022	0.034	0
96	2079	0.035	0
96	2145	0.036	0
96	2148	0.036	0
96	2249	0.037	0
96	2252	0.037	0
96	2255	0.037	0
96	2295	0.038	0
96	2298	0.038	0
96	2301	0.038	0
96	2304	0.038	0
96	2307	0.038	0
96	2310	0.038	0
96	2313	0.038	0
96	2316	0.038	0
96	2405	0.04	0
96	2441	0.041	0
96	2444	0.041	0
96	2494	0.042	0
96	2497	0.042	0
96	2500	0.042	0
96	2624	0.044	0
96	2627	0.044	0
96	2630	0.044	0
96	2633	0.044	0
96	2636	0.044	0
96	2639	0.044	0
96	2642	0.044	0
96	2645	0.044	0
96	2694	0.045	0
96	2730	0.046	0
96	2733	0.046	0
96	2763	0.047	0
96	2766	0.047	0
96	2769	0.047	0
96	2947	0.05	0
96	2950	0.05	0
96	2953	0.05	0
96	2956	0.05	0
96	2959	0.05	0
96	2962	0.05	0
96	2965	0.05	0
96	2968	0.05	0
96	2983	0.05	0
96	3019	0.051	0
96	3022	0.051	0
96	3061	0.052	0
96	3064	0.052	0
96	3067	0.052	0
96	3263	0.055	0
96	3266	0.055	0
96	3293	0.056	0
96	3296	0.056	0
96	3299	0.056	0
96	3302	0.056	0
96	3305	0.056	0
96	3308	0.056	0
96	3311	0.056	0
96	3314	0.056	0
96	3326	0.056	0
96	3329	0.056	0
96	3420	0.057	0
96	3423	0.057	0
96	3426	0.057	0
96	3625	0.06	0
96	3716	0.062	0
96	3719	0.062	0
96	3730	0.062	0
96	3733	0.062	0
96	3748	0.062	0
96	3751	0.062	0
96	3756	0.062	0
96	3759	0.062	0
96	3765	0.062	0
96	3859	0.063	0
96	3889	0.064	0
96	3920	0.065	0
96	4052	0.068	0
96	4055	0.068	0
96	4066	0.068	0
96	4069	0.068	0
96	4084	0.068	0
96	4087	0.068	0
96	4092	0.068	0
96	4095	0.068	0
96	4357	0.074	0
96	4360	0.074	0
96	4371	0.074	0
96	4374	0.074	0
96	4389	0.074	0
96	4392	0.074	0
96	4397	0.074	0
96	4400	0.074	0
96	4678	0.08	0
96	4681	0.08	0
96	4692	0.08	0
96	4695	0.08	0
96	4710	0.08	0
96	4713	0.08	0
96	4718	0.08	0
96	4721	0.08	0
96	5007	0.086	0
96	5010	0.086	0
96	5021	0.086	0
96	5024	0.086	0
96	5039	0.086	0
96	5042	0.086	0
96	5047	0.086	0
96	5050	0.086	0
96	5311	0.091	0
96	5317	0.091	0
96	5348	0.092	0
96	5351	0.092	0
96	5362	0.092	0
96	5365	0.092	0
96	5380	0.092	0
96	5383	0.092	0
96	5388	0.092	0
96	5391	0.092	0
96	5561	0.095	0
96	5567	0.095	0
96	5626	0.096	0
96	5629	0.096	0
96	5734	0.098	0
96	5737	0.098	0
96	5748	0.098	0
96	5751	0.098	0
96	5766	0.098	0
96	5769	0.098	0
96	5774	0.098	0
96	5777	0.098	0
96	5784	0.098	0
96	5786	0.098	0
96	5895	0.099	0
96	5980	0.101	0
96	5983	0.101	0
96	6125	0.103	0
96	6127	0.103	0
96	6157	0.104	0
96	6160	0.104	0
96	6171	0.104	0
96	6174	0.104	0
96	6189	0.104	0
96	6192	0.104	0
96	6197	0.104	0
96	6200	0.104	0
96	6320	0.106	0
96	6323	0.106	0
96	6410	0.108	0
96	6412	0.108	0
96	6493	0.11	0
96	6496	0.11	0
96	6507	0.11	0
96	6510	0.11	0
96	6525	0.11	0
96	6528	0.11	0
96	6533	0.11	0
96	6536	0.11	0
96	6576	0.111	0
96	6579	0.111	0
96	6646	0.113	0
96	6648	0.113	0
96	6780	0.116	0
96	6783	0.116	0
96	6794	0.116	0
96	6797	0.116	0
96	6812	0.116	0
96	6815	0.116	0
96	6820	0.116	0
96	6823	0.116	0
96	6832	0.116	0
96	6835	0.116	0
96	6902	0.118	0
96	6904	0.118	0
96	7040	0.121	0
96	7043	0.121	0
96	7073	0.122	0
96	7076	0.122	0
96	7087	0.122	0
96	7090	0.122	0
96	7105	0.122	0
96	7108	0.122	0
96	7113	0.122	0
96	7116	0.122	0
96	7158	0.123	0
96	7160	0.123	0
96	7276	0.126	0
96	7279	0.126	0
96	7364	0.128	0
96	7367	0.128	0
96	7378	0.128	0
96	7381	0.128	0
96	7396	0.128	0
96	7399	0.128	0
96	7404	0.128	0
96	7407	0.128	0
96	7414	0.128	0
96	7416	0.128	0
96	7512	0.131	0
96	7515	0.131	0
96	7622	0.133	0
96	7624	0.133	0
96	7653	0.134	0
96	7656	0.134	0
96	7667	0.134	0
96	7670	0.134	0
96	7685	0.134	0
96	7688	0.134	0
96	7693	0.134	0
96	7696	0.134	0
96	7768	0.136	0
96	7771	0.136	0
96	7858	0.138	0
96	7860	0.138	0
96	7941	0.14	0
96	7944	0.14	0
96	7955	0.14	0
96	7958	0.14	0
96	7973	0.14	0
96	7976	0.14	0
96	7981	0.14	0
96	7984	0.14	0
96	8024	0.141	0
96	8027	0.141	0
96	8094	0.143	0
96	8096	0.143	0
96	8228	0.146	0
96	8231	0.146	0
96	8242	0.146	0
96	8245	0.146	0
96	8260	0.146	0
96	8263	0.146	0
96	8268	0.146	0
96	8271	0.146	0
96	8280	0.146	0
96	8283	0.146	0
96	8350	0.148	0
96	8352	0.148	0
96	8488	0.151	0
96	8491	0.151	0
96	8521	0.152	0
96	8524	0.152	0
96	8535	0.152	0
96	8538	0.152	0
96	8553	0.152	0
96	8556	0.152	0
96	8561	0.152	0
96	8564	0.152	0
96	8606	0.153	0
96	8608	0.153	0
96	8724	0.156	0
96	8727	0.156	0
96	8812	0.158	0
96	8815	0.158	0
96	8826	0.158	0
96	8829	0.158	0
96	8844	0.158	0
96	8847	0.158	0
96	8852	0.158	0
96	8855	0.158	0
96	8862	0.158	0
96	8864	0.158	0
96	8960	0.161	0
96	8963	0.161	0
96	9070	0.163	0
96	9072	0.163	0
96	9101	0.164	0
96	9104	0.164	0
96	9115	0.164	0
96	9118	0.164	0
96	9133	0.164	0
96	9136	0.164	0
96	9141	0.164	0
96	9144	0.164	0
96	9216	0.166	0
96	9219	0.166	0
96	9306	0.168	0
96	9308	0.168	0
96	9389	0.17	0
96	9392	0.17	0
96	9403	0.17	0
96	9406	0.17	0
96	9421	0.17	0
96	9424	0.17	0
96	9429	0.17	0
96	9432	0.17	0
96	9472	0.171	0
96	9475	0.171	0
96	9542	0.173	0
96	9544	0.173	0
96	9676	0.176	0
96	9679	0.176	0
96	9690	0.176	0
96	9693	0.176	0
96	9708	0.176	0
96	9711	0.176	0
96	9716	0.176	0
96	9719	0.176	0
96	9728	0.176	0
96	9731	0.176	0
96	9798	0.178	0
96	9800	0.178	0
96	9936	0.181	0
96	9939	0.181	0
96	9969	0.182	0
96	9972	0.182	0
96	9983	0.182	0
96	9986	0.182	0
96	10001	0.182	0
96	10004	0.182	0
96	10009	0.182	0
96	10012	0.182	0
96	10054	0.183	0
96	10056	0.183	0
96	10172	0.186	0
96	10175	0.186	0
96	10260	0.188	0
96	10263	0.188	0
96	10274	0.188	0
96	10277	0.188	0
96	10292	0.188	0
96	10295	0.188	0
96	10300	0.188	0
96	10303	0.188	0
96	10310	0.188	0
96	10312	0.188	0
96	10408	0.191	0
96	10411	0.191	0
96	10518	0.193	0
96	10520	0.193	0
96	10549	0.194	0
96	10552	0.194	0
96	10563	0.194	0
96	10566	0.194	0
96	10581	0.194	0
96	10584	0.194	0
96	10589	0.194	0
96	10592	0.194	0
96	10664	0.196	0
96	10667	0.196	0
96	10754	0.198	0
96	10756	0.198	0
96	10853	0.2	0
96	10856	0.2	0
96	10867	0.2	0
96	10870	0.2	0
96	10885	0.2	0
96	10888	0.2	0
96	10893	0.2	0
96	10896	0.2	0
96	10936	0.201	0
96	10939	0.201	0
96	11006	0.203	0
96	11008	0.203	0
96	11140	0.206	0
96	11143	0.206	0
96	11154	0.206	0
96	11157	0.206	0
96	11172	0.206	0
96	11175	0.206	0
96	11180	0.206	0
96	11183	0.206	0
96	11192	0.206	0
96	11195	0.206	0
96	11757	0.208	0
96	11759	0.208	0
96	11895	0.211	0
96	11898	0.211	0
96	11928	0.212	0
96	11931	0.212	0
96	11942	0.212	0
96	11945	0.212	0
96	11960	0.212	0
96	11963	0.212	0
96	11968	0.212	0
96	11971	0.212	0
96	12013	0.213	0
96	12015	0.213	0
96	12131	0.216	0
96	12134	0.216	0
96	12219	0.218	0
96	12222	0.218	0
96	12233	0.218	0
96	12236	0.218	0
96	12251	0.218	0
96	12254	0.218	0
96	12259	0.218	0
96	12262	0.218	0
96	12269	0.218	0
96	12271	0.218	0
96	12367	0.221	0
96	12370	0.221	0
96	12477	0.223	0
96	12479	0.223	0
96	12508	0.224	0
96	12511	0.224	0
96	12522	0.224	0
96	12525	0.224	0
96	12540	0.224	0
96	12543	0.224	0
96	12548	0.224	0
96	12551	0.224	0
96	12623	0.226	0
96	12626	0.226	0
96	12713	0.228	0
96	12715	0.228	0
96	12796	0.23	0
96	12799	0.23	0
96	12810	0.23	0
96	12813	0.23	0
96	12828	0.23	0
96	12831	0.23	0
96	12836	0.23	0
96	12839	0.23	0
96	12879	0.231	0
96	12882	0.231	0
96	12949	0.233	0
96	12951	0.233	0
96	13083	0.236	0
96	13086	0.236	0
96	13097	0.236	0
96	13100	0.236	0
96	13115	0.236	0
96	13118	0.236	0
96	13123	0.236	0
96	13126	0.236	0
96	13135	0.236	0
96	13138	0.236	0
96	13205	0.238	0
96	13207	0.238	0
96	13343	0.241	0
96	13346	0.241	0
96	13376	0.242	0
96	13379	0.242	0
96	13390	0.242	0
96	13393	0.242	0
96	13408	0.242	0
96	13411	0.242	0
96	13416	0.242	0
96	13419	0.242	0
96	13461	0.243	0
96	13463	0.243	0
96	13579	0.246	0
96	13582	0.246	0
96	13667	0.248	0
96	13670	0.248	0
96	13681	0.248	0
96	13684	0.248	0
96	13699	0.248	0
96	13702	0.248	0
96	13707	0.248	0
96	13710	0.248	0
96	13717	0.248	0
96	13719	0.248	0
96	13815	0.251	0
96	13818	0.251	0
96	13925	0.253	0
96	13927	0.253	0
96	13956	0.254	0
96	13959	0.254	0
96	13970	0.254	0
96	13973	0.254	0
96	13988	0.254	0
96	13991	0.254	0
96	13996	0.254	0
96	13999	0.254	0
96	14071	0.256	0
96	14074	0.256	0
96	14656	0.258	0
96	14658	0.258	0
96	14739	0.26	0
96	14742	0.26	0
96	14753	0.26	0
96	14756	0.26	0
96	14771	0.26	0
96	14774	0.26	0
96	14779	0.26	0
96	14782	0.26	0
96	14822	0.261	0
96	14825	0.261	0
96	14892	0.263	0
96	14894	0.263	0
96	15026	0.266	0
96	15029	0.266	0
96	15040	0.266	0
96	15043	0.266	0
96	15058	0.266	0
96	15061	0.266	0
96	15066	0.266	0
96	15069	0.266	0
96	15078	0.266	0
96	15081	0.266	0
96	15148	0.268	0
96	15150	0.268	0
96	15286	0.271	0
96	15289	0.271	0
96	15319	0.272	0
96	15322	0.272	0
96	15333	0.272	0
96	15336	0.272	0
96	15351	0.272	0
96	15354	0.272	0
96	15359	0.272	0
96	15362	0.272	0
96	15404	0.273	0
96	15406	0.273	0
96	15522	0.276	0
96	15525	0.276	0
96	15610	0.278	0
96	15613	0.278	0
96	15624	0.278	0
96	15627	0.278	0
96	15642	0.278	0
96	15645	0.278	0
96	15650	0.278	0
96	15653	0.278	0
96	15660	0.278	0
96	15662	0.278	0
96	15758	0.281	0
96	15761	0.281	0
96	15868	0.283	0
96	15870	0.283	0
96	15899	0.284	0
96	15902	0.284	0
96	15913	0.284	0
96	15916	0.284	0
96	15931	0.284	0
96	15934	0.284	0
96	15939	0.284	0
96	15942	0.284	0
96	16014	0.286	0
96	16017	0.286	0
96	16104	0.288	0
96	16106	0.288	0
96	16187	0.29	0
96	16190	0.29	0
96	16201	0.29	0
96	16204	0.29	0
96	16219	0.29	0
96	16222	0.29	0
96	16227	0.29	0
96	16230	0.29	0
96	16270	0.291	0
96	16273	0.291	0
96	16340	0.293	0
96	16342	0.293	0
96	16474	0.296	0
96	16477	0.296	0
96	16488	0.296	0
96	16491	0.296	0
96	16506	0.296	0
96	16509	0.296	0
96	16514	0.296	0
96	16517	0.296	0
96	16526	0.296	0
96	16529	0.296	0
96	16596	0.298	0
96	16598	0.298	0
96	16750	0.301	0
96	16753	0.301	0
96	16783	0.302	0
96	16786	0.302	0
96	16797	0.302	0
96	16800	0.302	0
96	16815	0.302	0
96	16818	0.302	0
96	16823	0.302	0
96	16826	0.302	0
96	16868	0.303	0
96	16870	0.303	0
96	16986	0.306	0
96	16989	0.306	0
96	17074	0.308	0
96	17077	0.308	0
96	17088	0.308	0
96	17091	0.308	0
96	17106	0.308	0
96	17109	0.308	0
96	17114	0.308	0
96	17117	0.308	0
96	17124	0.308	0
96	17126	0.308	0
96	17222	0.311	0
96	17225	0.311	0
96	17332	0.313	0
96	17334	0.313	0
96	17363	0.314	0
96	17366	0.314	0
96	17377	0.314	0
96	17380	0.314	0
96	17395	0.314	0
96	17398	0.314	0
96	17403	0.314	0
96	17406	0.314	0
96	17478	0.316	0
96	17481	0.316	0
96	17568	0.318	0
96	17570	0.318	0
96	17651	0.32	0
96	17654	0.32	0
96	17665	0.32	0
96	17668	0.32	0
96	17683	0.32	0
96	17686	0.32	0
96	17691	0.32	0
96	17694	0.32	0
96	17734	0.321	0
96	17737	0.321	0
96	17804	0.323	0
96	17806	0.323	0
96	17938	0.326	0
96	17941	0.326	0
96	17952	0.326	0
96	17955	0.326	0
96	17970	0.326	0
96	17973	0.326	0
96	17978	0.326	0
96	17981	0.326	0
96	17990	0.326	0
96	17993	0.326	0
96	18060	0.328	0
96	18062	0.328	0
96	18198	0.331	0
96	18201	0.331	0
96	18231	0.332	0
96	18234	0.332	0
96	18245	0.332	0
96	18248	0.332	0
96	18263	0.332	0
96	18266	0.332	0
96	18271	0.332	0
96	18274	0.332	0
96	18316	0.333	0
96	18318	0.333	0
96	18434	0.336	0
96	18437	0.336	0
96	18522	0.338	0
96	18525	0.338	0
96	18536	0.338	0
96	18539	0.338	0
96	18554	0.338	0
96	18557	0.338	0
96	18562	0.338	0
96	18565	0.338	0
96	18572	0.338	0
96	18574	0.338	0
96	18670	0.341	0
96	18673	0.341	0
96	18780	0.343	0
96	18782	0.343	0
96	18811	0.344	0
96	18814	0.344	0
96	18825	0.344	0
96	18828	0.344	0
96	18843	0.344	0
96	18846	0.344	0
96	18851	0.344	0
96	18854	0.344	0
96	18926	0.346	0
96	18929	0.346	0
96	19016	0.348	0
96	19018	0.348	0
96	19099	0.35	0
96	19102	0.35	0
96	19113	0.35	0
96	19116	0.35	0
96	19131	0.35	0
96	19134	0.35	0
96	19139	0.35	0
96	19142	0.35	0
96	19182	0.351	0
96	19185	0.351	0
96	19252	0.353	0
96	19254	0.353	0
96	19386	0.356	0
96	19389	0.356	0
96	19400	0.356	0
96	19403	0.356	0
96	19418	0.356	0
96	19421	0.356	0
96	19426	0.356	0
96	19429	0.356	0
96	19438	0.356	0
96	19441	0.356	0
96	19508	0.358	0
96	19510	0.358	0
96	19646	0.361	0
96	19649	0.361	0
96	19679	0.362	0
96	19682	0.362	0
96	19693	0.362	0
96	19696	0.362	0
96	19711	0.362	0
96	19714	0.362	0
96	19719	0.362	0
96	19722	0.362	0
96	19764	0.363	0
96	19766	0.363	0
96	19882	0.366	0
96	19885	0.366	0
96	19970	0.368	0
96	19973	0.368	0
96	19984	0.368	0
96	19987	0.368	0
96	20002	0.368	0
96	20005	0.368	0
96	20010	0.368	0
96	20013	0.368	0
96	20020	0.368	0
96	20022	0.368	0
96	20118	0.371	0
96	20121	0.371	0
96	20228	0.373	0
96	20230	0.373	0
96	20259	0.374	0
96	20262	0.374	0
96	20273	0.374	0
96	20276	0.374	0
96	20291	0.374	0
96	20294	0.374	0
96	20299	0.374	0
96	20302	0.374	0
96	20374	0.376	0
96	20377	0.376	0
96	20464	0.378	0
96	20466	0.378	0
96	20547	0.38	0
96	20550	0.38	0
96	20561	0.38	0
96	20564	0.38	0
96	20579	0.38	0
96	20582	0.38	0
96	20587	0.38	0
96	20590	0.38	0
96	20630	0.381	0
96	20633	0.381	0
96	20700	0.383	0
96	20702	0.383	0
96	20834	0.386	0
96	20837	0.386	0
96	20848	0.386	0
96	20851	0.386	0
96	20866	0.386	0
96	20869	0.386	0
96	20874	0.386	0
96	20877	0.386	0
96	20886	0.386	0
96	20889	0.386	0
96	20956	0.388	0
96	20958	0.388	0
96	21094	0.391	0
96	21097	0.391	0
96	21127	0.392	0
96	21130	0.392	0
96	21141	0.392	0
96	21144	0.392	0
96	21159	0.392	0
96	21162	0.392	0
96	21167	0.392	0
96	21170	0.392	0
96	21212	0.393	0
96	21214	0.393	0
96	21330	0.396	0
96	21333	0.396	0
96	21418	0.398	0
96	21421	0.398	0
96	21432	0.398	0
96	21435	0.398	0
96	21450	0.398	0
96	21453	0.398	0
96	21458	0.398	0
96	21461	0.398	0
96	21468	0.398	0
96	21470	0.398	0
96	21582	0.401	0
96	21585	0.401	0
96	21692	0.403	0
96	21694	0.403	0
96	21723	0.404	0
96	21726	0.404	0
96	21737	0.404	0
96	21740	0.404	0
96	21755	0.404	0
96	21758	0.404	0
96	21763	0.404	0
96	21766	0.404	0
96	21838	0.406	0
96	21841	0.406	0
96	21936	0.408	0
96	21938	0.408	0
96	22019	0.41	0
96	22022	0.41	0
96	22033	0.41	0
96	22036	0.41	0
96	22051	0.41	0
96	22054	0.41	0
96	22059	0.41	0
96	22062	0.41	0
96	22102	0.411	0
96	22105	0.411	0
96	22172	0.413	0
96	22174	0.413	0
96	22306	0.416	0
96	22309	0.416	0
96	22320	0.416	0
96	22323	0.416	0
96	22338	0.416	0
96	22341	0.416	0
96	22346	0.416	0
96	22349	0.416	0
96	22358	0.416	0
96	22361	0.416	0
96	22428	0.418	0
96	22430	0.418	0
96	22566	0.421	0
96	22569	0.421	0
96	22599	0.422	0
96	22602	0.422	0
96	22613	0.422	0
96	22616	0.422	0
96	22631	0.422	0
96	22634	0.422	0
96	22639	0.422	0
96	22642	0.422	0
96	22684	0.423	0
96	22686	0.423	0
96	22802	0.426	0
96	22805	0.426	0
96	22890	0.428	0
96	22893	0.428	0
96	22904	0.428	0
96	22907	0.428	0
96	22922	0.428	0
96	22925	0.428	0
96	22930	0.428	0
96	22933	0.428	0
96	22940	0.428	0
96	22942	0.428	0
96	23038	0.431	0
96	23041	0.431	0
96	23148	0.433	0
96	23150	0.433	0
96	23179	0.434	0
96	23182	0.434	0
96	23193	0.434	0
96	23196	0.434	0
96	23211	0.434	0
96	23214	0.434	0
96	23219	0.434	0
96	23222	0.434	0
96	23294	0.436	0
96	23297	0.436	0
96	23384	0.438	0
96	23386	0.438	0
96	23467	0.44	0
96	23470	0.44	0
96	23481	0.44	0
96	23484	0.44	0
96	23499	0.44	0
96	23502	0.44	0
96	23507	0.44	0
96	23510	0.44	0
96	23550	0.441	0
96	23553	0.441	0
96	23620	0.443	0
96	23622	0.443	0
96	23754	0.446	0
96	23757	0.446	0
96	23768	0.446	0
96	23771	0.446	0
96	23786	0.446	0
96	23789	0.446	0
96	23794	0.446	0
96	23797	0.446	0
96	23806	0.446	0
96	23809	0.446	0
96	23876	0.448	0
96	23878	0.448	0
96	24014	0.451	0
96	24017	0.451	0
96	24047	0.452	0
96	24050	0.452	0
96	24061	0.452	0
96	24064	0.452	0
96	24079	0.452	0
96	24082	0.452	0
96	24087	0.452	0
96	24090	0.452	0
96	24132	0.453	0
96	24134	0.453	0
96	24250	0.456	0
96	24253	0.456	0
96	24346	0.458	0
96	24349	0.458	0
96	24360	0.458	0
96	24363	0.458	0
96	24378	0.458	0
96	24381	0.458	0
96	24386	0.458	0
96	24389	0.458	0
96	24396	0.458	0
96	24398	0.458	0
96	24494	0.461	0
96	24497	0.461	0
96	24604	0.463	0
96	24606	0.463	0
96	24635	0.464	0
96	24638	0.464	0
96	24649	0.464	0
96	24652	0.464	0
96	24667	0.464	0
96	24670	0.464	0
96	24675	0.464	0
96	24678	0.464	0
96	24750	0.466	0
96	24753	0.466	0
96	24840	0.468	0
96	24842	0.468	0
96	24923	0.47	0
96	24926	0.47	0
96	24937	0.47	0
96	24940	0.47	0
96	24955	0.47	0
96	24958	0.47	0
96	24963	0.47	0
96	24966	0.47	0
96	25006	0.471	0
96	25009	0.471	0
96	25076	0.473	0
96	25078	0.473	0
96	25210	0.476	0
96	25213	0.476	0
96	25224	0.476	0
96	25227	0.476	0
96	25242	0.476	0
96	25245	0.476	0
96	25250	0.476	0
96	25253	0.476	0
96	25262	0.476	0
96	25265	0.476	0
96	25332	0.478	0
96	25334	0.478	0
96	25470	0.481	0
96	25473	0.481	0
96	25503	0.482	0
96	25506	0.482	0
96	25517	0.482	0
96	25520	0.482	0
96	25535	0.482	0
96	25538	0.482	0
96	25543	0.482	0
96	25546	0.482	0
96	25588	0.483	0
96	25590	0.483	0
96	25706	0.486	0
96	25709	0.486	0
96	25794	0.488	0
96	25797	0.488	0
96	25808	0.488	0
96	25811	0.488	0
96	25826	0.488	0
96	25829	0.488	0
96	25834	0.488	0
96	25837	0.488	0
96	25844	0.488	0
96	25846	0.488	0
96	25942	0.491	0
96	25945	0.491	0
96	26052	0.493	0
96	26054	0.493	0
96	26083	0.494	0
96	26086	0.494	0
96	26097	0.494	0
96	26100	0.494	0
96	26115	0.494	0
96	26118	0.494	0
96	26123	0.494	0
96	26126	0.494	0
96	26198	0.496	0
96	26201	0.496	0
96	26288	0.498	0
96	26290	0.498	0
96	26387	0.5	0
96	26390	0.5	0
96	26401	0.5	0
96	26404	0.5	0
96	26419	0.5	0
96	26422	0.5	0
96	26427	0.5	0
96	26430	0.5	0
96	26470	0.501	0
96	26473	0.501	0
96	26540	0.503	0
96	26542	0.503	0
96	26674	0.506	0
96	26677	0.506	0
96	26688	0.506	0
96	26691	0.506	0
96	26706	0.506	0
96	26709	0.506	0
96	26714	0.506	0
96	26717	0.506	0
96	26726	0.506	0
96	26729	0.506	0
96	26796	0.508	0
96	26798	0.508	0
96	26934	0.511	0
96	26937	0.511	0
96	26967	0.512	0
96	26970	0.512	0
96	26981	0.512	0
96	26984	0.512	0
96	26999	0.512	0
96	27002	0.512	0
96	27007	0.512	0
96	27010	0.512	0
96	27052	0.513	0
96	27054	0.513	0
96	27170	0.516	0
96	27173	0.516	0
96	27258	0.518	0
96	27261	0.518	0
96	27272	0.518	0
96	27275	0.518	0
96	27290	0.518	0
96	27293	0.518	0
96	27298	0.518	0
96	27301	0.518	0
96	27308	0.518	0
96	27310	0.518	0
96	27406	0.521	0
96	27409	0.521	0
96	27516	0.523	0
96	27518	0.523	0
96	27547	0.524	0
96	27550	0.524	0
96	27561	0.524	0
96	27564	0.524	0
96	27579	0.524	0
96	27582	0.524	0
96	27587	0.524	0
96	27590	0.524	0
96	27662	0.526	0
96	27665	0.526	0
96	27752	0.528	0
96	27754	0.528	0
96	27835	0.53	0
96	27838	0.53	0
96	27849	0.53	0
96	27852	0.53	0
96	27867	0.53	0
96	27870	0.53	0
96	27875	0.53	0
96	27878	0.53	0
96	27918	0.531	0
96	27921	0.531	0
96	27988	0.533	0
96	27990	0.533	0
96	28122	0.536	0
96	28125	0.536	0
96	28136	0.536	0
96	28139	0.536	0
96	28154	0.536	0
96	28157	0.536	0
96	28162	0.536	0
96	28165	0.536	0
96	28174	0.536	0
96	28177	0.536	0
96	28244	0.538	0
96	28246	0.538	0
96	28382	0.541	0
96	28385	0.541	0
96	28415	0.542	0
96	28418	0.542	0
96	28429	0.542	0
96	28432	0.542	0
96	28447	0.542	0
96	28450	0.542	0
96	28455	0.542	0
96	28458	0.542	0
96	28500	0.543	0
96	28502	0.543	0
96	28618	0.546	0
96	28621	0.546	0
96	28706	0.548	0
96	28709	0.548	0
96	28720	0.548	0
96	28723	0.548	0
96	28738	0.548	0
96	28741	0.548	0
96	28746	0.548	0
96	28749	0.548	0
96	28756	0.548	0
96	28758	0.548	0
96	28854	0.551	0
96	28857	0.551	0
96	28964	0.553	0
96	28966	0.553	0
96	28995	0.554	0
96	28998	0.554	0
96	29009	0.554	0
96	29012	0.554	0
96	29027	0.554	0
96	29030	0.554	0
96	29035	0.554	0
96	29038	0.554	0
96	29110	0.556	0
96	29113	0.556	0
96	29200	0.558	0
96	29202	0.558	0
96	29283	0.56	0
96	29286	0.56	0
96	29297	0.56	0
96	29300	0.56	0
96	29315	0.56	0
96	29318	0.56	0
96	29323	0.56	0
96	29326	0.56	0
96	29366	0.561	0
96	29369	0.561	0
96	29436	0.563	0
96	29438	0.563	0
96	29570	0.566	0
96	29573	0.566	0
96	29584	0.566	0
96	29587	0.566	0
96	29602	0.566	0
96	29605	0.566	0
96	29610	0.566	0
96	29613	0.566	0
96	29622	0.566	0
96	29625	0.566	0
96	29692	0.568	0
96	29694	0.568	0
96	29830	0.571	0
96	29833	0.571	0
96	29863	0.572	0
96	29866	0.572	0
96	29877	0.572	0
96	29880	0.572	0
96	29895	0.572	0
96	29898	0.572	0
96	29903	0.572	0
96	29906	0.572	0
96	29948	0.573	0
96	29950	0.573	0
96	30066	0.576	0
96	30069	0.576	0
96	30154	0.578	0
96	30157	0.578	0
96	30168	0.578	0
96	30171	0.578	0
96	30186	0.578	0
96	30189	0.578	0
96	30194	0.578	0
96	30197	0.578	0
96	30204	0.578	0
96	30206	0.578	0
96	30302	0.581	0
96	30305	0.581	0
96	30412	0.583	0
96	30414	0.583	0
96	30443	0.584	0
96	30446	0.584	0
96	30457	0.584	0
96	30460	0.584	0
96	30475	0.584	0
96	30478	0.584	0
96	30483	0.584	0
96	30486	0.584	0
96	30558	0.586	0
96	30561	0.586	0
96	30648	0.588	0
96	30650	0.588	0
96	30731	0.59	0
96	30734	0.59	0
96	30745	0.59	0
96	30748	0.59	0
96	30763	0.59	0
96	30766	0.59	0
96	30771	0.59	0
96	30774	0.59	0
96	30814	0.591	0
96	30817	0.591	0
96	30884	0.593	0
96	30886	0.593	0
96	31018	0.596	0
96	31021	0.596	0
96	31032	0.596	0
96	31035	0.596	0
96	31050	0.596	0
96	31053	0.596	0
96	31058	0.596	0
96	31061	0.596	0
96	31070	0.596	0
96	31073	0.596	0
96	31140	0.598	0
96	31142	0.598	0
96	31294	0.601	0
96	31297	0.601	0
96	31327	0.602	0
96	31330	0.602	0
96	31341	0.602	0
96	31344	0.602	0
96	31359	0.602	0
96	31362	0.602	0
96	31367	0.602	0
96	31370	0.602	0
96	31412	0.603	0
96	31414	0.603	0
96	31530	0.606	0
96	31533	0.606	0
96	31618	0.608	0
96	31621	0.608	0
96	31632	0.608	0
96	31635	0.608	0
96	31650	0.608	0
96	31653	0.608	0
96	31658	0.608	0
96	31661	0.608	0
96	31668	0.608	0
96	31670	0.608	0
96	31766	0.611	0
96	31769	0.611	0
96	31876	0.613	0
96	31878	0.613	0
96	31907	0.614	0
96	31910	0.614	0
96	31921	0.614	0
96	31924	0.614	0
96	31939	0.614	0
96	31942	0.614	0
96	31947	0.614	0
96	31950	0.614	0
96	32022	0.616	0
96	32025	0.616	0
96	32112	0.618	0
96	32114	0.618	0
96	32195	0.62	0
96	32198	0.62	0
96	32209	0.62	0
96	32212	0.62	0
96	32227	0.62	0
96	32230	0.62	0
96	32235	0.62	0
96	32238	0.62	0
96	32278	0.621	0
96	32281	0.621	0
96	32348	0.623	0
96	32350	0.623	0
96	32482	0.626	0
96	32485	0.626	0
96	32496	0.626	0
96	32499	0.626	0
96	32514	0.626	0
96	32517	0.626	0
96	32522	0.626	0
96	32525	0.626	0
96	32534	0.626	0
96	32537	0.626	0
96	32604	0.628	0
96	32606	0.628	0
96	32742	0.631	0
96	32745	0.631	0
96	32775	0.632	0
96	32778	0.632	0
96	32789	0.632	0
96	32792	0.632	0
96	32807	0.632	0
96	32810	0.632	0
96	32815	0.632	0
96	32818	0.632	0
96	32860	0.633	0
96	32862	0.633	0
96	32978	0.636	0
96	32981	0.636	0
96	33066	0.638	0
96	33069	0.638	0
96	33080	0.638	0
96	33083	0.638	0
96	33098	0.638	0
96	33101	0.638	0
96	33106	0.638	0
96	33109	0.638	0
96	33116	0.638	0
96	33118	0.638	0
96	33214	0.641	0
96	33217	0.641	0
96	33324	0.643	0
96	33326	0.643	0
96	33355	0.644	0
96	33358	0.644	0
96	33369	0.644	0
96	33372	0.644	0
96	33387	0.644	0
96	33390	0.644	0
96	33395	0.644	0
96	33398	0.644	0
96	33470	0.646	0
96	33473	0.646	0
96	33560	0.648	0
96	33562	0.648	0
96	33643	0.65	0
96	33646	0.65	0
96	33657	0.65	0
96	33660	0.65	0
96	33675	0.65	0
96	33678	0.65	0
96	33683	0.65	0
96	33686	0.65	0
96	33726	0.651	0
96	33729	0.651	0
96	33796	0.653	0
96	33798	0.653	0
96	33930	0.656	0
96	33933	0.656	0
96	33944	0.656	0
96	33947	0.656	0
96	33962	0.656	0
96	33965	0.656	0
96	33970	0.656	0
96	33973	0.656	0
96	33982	0.656	0
96	33985	0.656	0
96	34052	0.658	0
96	34054	0.658	0
96	34190	0.661	0
96	34193	0.661	0
96	34223	0.662	0
96	34226	0.662	0
96	34237	0.662	0
96	34240	0.662	0
96	34255	0.662	0
96	34258	0.662	0
96	34263	0.662	0
96	34266	0.662	0
96	34308	0.663	0
96	34310	0.663	0
96	34426	0.666	0
96	34429	0.666	0
96	34514	0.668	0
96	34517	0.668	0
96	34528	0.668	0
96	34531	0.668	0
96	34546	0.668	0
96	34549	0.668	0
96	34554	0.668	0
96	34557	0.668	0
96	34564	0.668	0
96	34566	0.668	0
96	34662	0.671	0
96	34665	0.671	0
96	34772	0.673	0
96	34774	0.673	0
96	34803	0.674	0
96	34806	0.674	0
96	34817	0.674	0
96	34820	0.674	0
96	34835	0.674	0
96	34838	0.674	0
96	34843	0.674	0
96	34846	0.674	0
96	34918	0.676	0
96	34921	0.676	0
96	35008	0.678	0
96	35010	0.678	0
96	35091	0.68	0
96	35094	0.68	0
96	35105	0.68	0
96	35108	0.68	0
96	35123	0.68	0
96	35126	0.68	0
96	35131	0.68	0
96	35134	0.68	0
96	35174	0.681	0
96	35177	0.681	0
96	35244	0.683	0
96	35246	0.683	0
96	35378	0.686	0
96	35381	0.686	0
96	35392	0.686	0
96	35395	0.686	0
96	35410	0.686	0
96	35413	0.686	0
96	35418	0.686	0
96	35421	0.686	0
96	35430	0.686	0
96	35433	0.686	0
96	35500	0.688	0
96	35502	0.688	0
96	35638	0.691	0
96	35641	0.691	0
96	35671	0.692	0
96	35674	0.692	0
96	35685	0.692	0
96	35688	0.692	0
96	35703	0.692	0
96	35706	0.692	0
96	35711	0.692	0
96	35714	0.692	0
96	35756	0.693	0
96	35758	0.693	0
96	35874	0.696	0
96	35877	0.696	0
96	35962	0.698	0
96	35965	0.698	0
96	35976	0.698	0
96	35979	0.698	0
96	35994	0.698	0
96	35997	0.698	0
96	36002	0.698	0
96	36005	0.698	0
96	36012	0.698	0
96	36014	0.698	0
96	36126	0.701	0
96	36129	0.701	0
96	36236	0.703	0
96	36238	0.703	0
96	36267	0.704	0
96	36270	0.704	0
96	36281	0.704	0
96	36284	0.704	0
96	36299	0.704	0
96	36302	0.704	0
96	36307	0.704	0
96	36310	0.704	0
96	36382	0.706	0
96	36385	0.706	0
96	36472	0.708	0
96	36474	0.708	0
96	36555	0.71	0
96	36558	0.71	0
96	36569	0.71	0
96	36572	0.71	0
96	36587	0.71	0
96	36590	0.71	0
96	36595	0.71	0
96	36598	0.71	0
96	36638	0.711	0
96	36641	0.711	0
96	36708	0.713	0
96	36710	0.713	0
96	36842	0.716	0
[...]
1175	651	0.0070001912	20
1175	651	0.0070001912	22
1175	11239	0.2070005424	20
1175	11239	0.2070005424	18
1175	11239	0.2070005424	16
1175	11239	0.2070005424	14
1175	11239	0.2070005424	12
1175	11239	0.2070005424	10
1175	11239	0.2070005424	8
1175	11239	0.2070005424	6
1175	11239	0.2070005424	4
1175	11239	0.2070005424	2
1175	11239	0.2070005424	0
1175	11239	0.2070005424	2
1175	11239	0.2070005424	4
1175	11239	0.2070005424	6
1175	11239	0.2070005424	8
1175	11239	0.2070005424	10
1175	11239	0.2070005424	12
1175	11239	0.2070005424	14
1175	11239	0.2070005424	16
1175	11239	0.2070005424	18
1175	11239	0.2070005424	20
1175	11239	0.2070005424	22
1175	11239	0.2070005424	24
1175	11239	0.2070005424	26
1175	11239	0.2070005424	28
1175	11239	0.2070005424	30
1175	11239	0.2070005424	32
1175	11239	0.2070005424	34
1175	11239	0.2070005424	36
1175	11239	0.2070005424	38
1175	11239	0.2070005424	40
1175	11239	0.2070005424	42
1175	11239	0.2070005424	44
1175	11239	0.2070005424	46
1175	11239	0.2070005424	48
1175	11239	0.2070005424	50
1175	11239	0.2070005424	52
1175	11239	0.2070005424	54
1175	11239	0.2070005424	56
1175	11239	0.2070005424	58
1175	11239	0.2070005424	60
1175	11239	0.2070005424	62
1175	11239	0.2070005424	64
1175	11239	0.2070005424	66
1175	11239	0.2070005424	68
1175	11239	0.2070005424	70
1175	11239	0.2070005424	72
1175	11239	0.2070005424	74
1175	11239	0.2070005424	76
1175	11239	0.2070005424	78
1175	11239	0.2070005424	80
1175	11239	0.2070005424	82
1175	11239	0.2070005424	84
1175	11239	0.2070005424	86
1175	11239	0.2070005424	88
1175	11239	0.2070005424	90
1175	11239	0.2070005424	92
1175	11239	0.2070005424	94
1175	11239	0.2070005424	96
1175	11239	0.2070005424	98
1175	11239	0.2070005424	100
1175	11239	0.2070005424	102
1175	11239	0.2070005424	104
1175	11239	0.2070005424	106
1175	11239	0.2070005424	108
1175	11239	0.2070005424	110
1175	11239	0.2070005424	112
1175	11239	0.2070005424	114
1175	11239	0.2070005424	116
1175	11239	0.2070005424	118
1175	11239	0.2070005424	120
1175	11239	0.2070005424	122
1175	11239	0.2070005424	124
1175	11239	0.2070005424	126
1175	11239	0.2070005424	128
1175	11239	0.2070005424	130
1175	11239	0.2070005424	132
1175	11239	0.2070005424	134
1175	11239	0.2070005424	136
1175	11239	0.2070005424	138
1175	11239	0.2070005424	140
1175	11239	0.2070005424	142
1175	11239	0.2070005424	144
1175	11239	0.2070005424	146
1175	11239	0.2070005424	148
1175	11239	0.2070005424	150
1175	11239	0.2070005424	152
1175	11239	0.2070005424	154
1175	11239	0.2070005424	156
1175	11239	0.2070005424	158
1175	11239	0.2070005424	160
1175	11239	0.2070005424	162
1175	11239	0.2070005424	164
1175	11239	0.2070005424	166
1175	11239	0.2070005424	168
1175	11239	0.2070005424	170
1175	11239	0.2070005424	172
1175	11239	0.2070005424	174
1175	11239	0.2070005424	176
1175	11239	0.2070005424	178
1175	11239	0.2070005424	180
1175	11239	0.2070005424	182
1175	11239	0.2070005424	184
1175	11239	0.2070005424	186
1175	11239	0.2070005424	188
1175	11239	0.2070005424	190
1175	11239	0.2070005424	192
1175	21885	0.4070022536	190
1175	21885	0.4070022536	188
1175	21885	0.4070022536	186
1175	21885	0.4070022536	184
1175	21885	0.4070022536	182
1175	21885	0.4070022536	180
1175	21885	0.4070022536	178
1175	21885	0.4070022536	176
1175	21885	0.4070022536	174
1175	21885	0.4070022536	172
1175	21885	0.4070022536	170
1175	21885	0.4070022536	168
1175	21885	0.4070022536	166
1175	21885	0.4070022536	164
1175	21885	0.4070022536	162
1175	21885	0.4070022536	160
1175	21885	0.4070022536	158
1175	21885	0.4070022536	156
1175	21885	0.4070022536	154
1175	21885	0.4070022536	152
1175	21885	0.4070022536	150
1175	21885	0.4070022536	148
1175	21885	0.4070022536	146
1175	21885	0.4070022536	144
1175	21885	0.4070022536	142
1175	21885	0.4070022536	140
1175	21885	0.4070022536	138
1175	21885	0.4070022536	136
1175	21885	0.4070022536	134
1175	21885	0.4070022536	132
1175	21885	0.4070022536	130
1175	21885	0.4070022536	128
1175	21885	0.4070022536	126
1175	21885	0.4070022536	124
1175	21885	0.4070022536	122
1175	21885	0.4070022536	120
1175	21885	0.4070022536	118
1175	21885	0.4070022536	116
1175	21885	0.4070022536	114
1175	21885	0.4070022536	112
1175	21885	0.4070022536	110
1175	21885	0.4070022536	108
1175	21885	0.4070022536	106
1175	21885	0.4070022536	104
1175	21885	0.4070022536	102
1175	21885	0.4070022536	100
1175	21885	0.4070022536	98
1175	21885	0.4070022536	96
1175	21885	0.4070022536	94
1175	21885	0.4070022536	92
1175	21885	0.4070022536	90
1175	21885	0.4070022536	88
1175	21885	0.4070022536	86
1175	21885	0.4070022536	84
1175	21885	0.4070022536	82
1175	21885	0.4070022536	80
1175	21885	0.4070022536	78
1175	21885	0.4070022536	76
1175	21885	0.4070022536	74
1175	21885	0.4070022536	72
1175	21885	0.4070022536	70
1175	21885	0.4070022536	68
1175	21885	0.4070022536	66
1175	21885	0.4070022536	64
1175	21885	0.4070022536	62
1175	21885	0.4070022536	60
1175	21885	0.4070022536	58
1175	21885	0.4070022536	56
1175	21885	0.4070022536	54
1175	21885	0.4070022536	52
1175	21885	0.4070022536	50
1175	21885	0.4070022536	48
1175	21885	0.4070022536	46
1175	21885	0.4070022536	44
1175	21885	0.4070022536	42
1175	21885	0.4070022536	40
1175	21885	0.4070022536	38
1175	21885	0.4070022536	36
1175	21885	0.4070022536	34
1175	21885	0.4070022536	32
1175	21885	0.4070022536	30
1175	21885	0.4070022536	28
1175	21885	0.4070022536	26
1175	21885	0.4070022536	24
1175	21885	0.4070022536	22
1175	21885	0.4070022536	20
1175	21885	0.4070022536	18
1175	21885	0.4070022536	16
1175	21885	0.4070022536	14
1175	21885	0.4070022536	12
1175	21885	0.4070022536	10
1175	21885	0.4070022536	8
1175	21885	0.4070022536	6
1175	21885	0.4070022536	4
1175	21885	0.4070022536	2
1175	21885	0.4070022536	0
1178	651	0.0070001912	0
1178	11239	0.2070005424	0
1178	21885	0.4070022536	0
1179	651	0.0070001912	0
1179	11239	0.2070005424	0
1179	21885	0.4070022536	0
1180	651	0.0070001912	0
1180	11239	0.2070005424	0
1180	21885	0.4070022536	0
1181	651	0.0070001912	0
1181	11239	0.2070005424	0
1181	21885	0.4070022536	0
1182	150	0.0000001228	0
1185	651	0.0070001912	2000
1185	11239	0.2070005424	2011
1185	21885	0.4070022536	2107
1187	651	0.0070001912	0
1187	11239	0.2070005424	0
1187	21885	0.4070022536	0
1188	651	0.0070001912	0
1188	11239	0.2070005424	0
1188	21885	0.4070022536	0
1190	235	0.0000006304	3
1192	235	0.0000006304	65535
1193	235	0.0000006304	8940
1194	235	0.0000006304	0.3725
1197	235	0.0000006304	1
1209	163	0.0000003096	0
1217	235	0.0000006304	3
1219	235	0.0000006304	65535
1220	235	0.0000006304	8940
1221	235	0.0000006304	0.3725
1224	235	0.0000006304	1
1236	163	0.0000003096	0
1244	236	0.0000006304	3
1246	236	0.0000006304	65535
1247	236	0.0000006304	8940
1248	236	0.0000006304	0.3725
1251	236	0.0000006304	1
1263	164	0.0000003096	0
1271	236	0.0000006304	3
1273	236	0.0000006304	65535
1274	236	0.0000006304	8940
1275	236	0.0000006304	0.3725
1278	236	0.0000006304	1
1290	164	0.0000003096	0
1300	3447	0.0570001912	0
1300	14118	0.2570005424	0
1300	24317	0.4570022536	0
1301	3375	0.057	1
1301	3375	0.057	0
1301	3378	0.057	1
1301	3379	0.057	2
1301	3380	0.057	3
1301	3381	0.057	4
1301	3382	0.057	5
1301	3383	0.057	6
1301	3384	0.057	7
1301	3385	0.057	8
1301	3386	0.057	9
1301	3387	0.057	10
1301	3388	0.057	11
1301	3447	0.0570001912	10
1301	3447	0.0570001912	9
1301	3447	0.0570001912	8
1301	3447	0.0570001912	7
1301	3447	0.0570001912	6
1301	3447	0.0570001912	5
1301	3447	0.0570001912	4
1301	3447	0.0570001912	3
1301	3447	0.0570001912	2
1301	3447	0.0570001912	1
1301	3447	0.0570001912	0
1301	3814	0.063	1
1301	3815	0.063	2
1301	3816	0.063	3
1301	3817	0.063	4
1301	3818	0.063	5
1301	3819	0.063	6
1301	3820	0.063	7
1301	3821	0.063	8
1301	3822	0.063	9
1301	3823	0.063	10
1301	3824	0.063	11
1301	3825	0.063	12
1301	4137	0.069	13
1301	4138	0.069	14
1301	4139	0.069	15
1301	4140	0.069	16
1301	4141	0.069	17
1301	4142	0.069	18
1301	4143	0.069	19
1301	4144	0.069	20
1301	4145	0.069	21
1301	4146	0.069	22
1301	4147	0.069	23
1301	4148	0.069	24
1301	4441	0.075	25
1301	4442	0.075	26
1301	4443	0.075	27
1301	4444	0.075	28
1301	4445	0.075	29
1301	4446	0.075	30
1301	4447	0.075	31
1301	4448	0.075	32
1301	4449	0.075	33
1301	4450	0.075	34
1301	4451	0.075	35
1301	4452	0.075	36
1301	4761	0.081	37
1301	4762	0.081	38
1301	4763	0.081	39
1301	4764	0.081	40
1301	4765	0.081	41
1301	4766	0.081	42
1301	4767	0.081	43
1301	4768	0.081	44
1301	4769	0.081	45
1301	4770	0.081	46
1301	4771	0.081	47
1301	4772	0.081	48
1301	5096	0.087	49
1301	5097	0.087	50
1301	5098	0.087	51
1301	5099	0.087	52
1301	5100	0.087	53
1301	5101	0.087	54
1301	5102	0.087	55
1301	5103	0.087	56
1301	5104	0.087	57
1301	5105	0.087	58
1301	5106	0.087	59
1301	5107	0.087	60
1301	5437	0.093	61
1301	5438	0.093	62
1301	5439	0.093	63
1301	5440	0.093	64
1301	5441	0.093	65
1301	5442	0.093	66
1301	5443	0.093	67
1301	5444	0.093	68
1301	5445	0.093	69
1301	5446	0.093	70
1301	5447	0.093	71
1301	5448	0.093	72
1301	5850	0.099	73
1301	5851	0.099	74
1301	5852	0.099	75
1301	5853	0.099	76
1301	5854	0.099	77
1301	5855	0.099	78
1301	5856	0.099	79
1301	5857	0.099	80
1301	5858	0.099	81
1301	5859	0.099	82
1301	5860	0.099	83
1301	5861	0.099	84
1301	6244	0.105	85
1301	6245	0.105	86
1301	6246	0.105	87
1301	6247	0.105	88
1301	6248	0.105	89
1301	6249	0.105	90
1301	6250	0.105	91
1301	6251	0.105	92
1301	6252	0.105	93
1301	6253	0.105	94
1301	6254	0.105	95
1301	6255	0.105	96
1301	14118	0.2570005424	95
1301	14118	0.2570005424	94
1301	14118	0.2570005424	93
1301	14118	0.2570005424	92
1301	14118	0.2570005424	91
1301	14118	0.2570005424	90
1301	14118	0.2570005424	89
1301	14118	0.2570005424	88
1301	14118	0.2570005424	87
1301	14118	0.2570005424	86
1301	14118	0.2570005424	85
1301	14118	0.2570005424	84
1301	14118	0.2570005424	83
1301	14118	0.2570005424	82
1301	14118	0.2570005424	81
1301	14118	0.2570005424	80
1301	14118	0.2570005424	79
1301	14118	0.2570005424	78
1301	14118	0.2570005424	77
1301	14118	0.2570005424	76
1301	14118	0.2570005424	75
1301	14118	0.2570005424	74
1301	14118	0.2570005424	73
1301	14118	0.2570005424	72
1301	14118	0.2570005424	71
1301	14118	0.2570005424	70
1301	14118	0.2570005424	69
1301	14118	0.2570005424	68
1301	14118	0.2570005424	67
1301	14118	0.2570005424	66
1301	14118	0.2570005424	65
1301	14118	0.2570005424	64
1301	14118	0.2570005424	63
1301	14118	0.2570005424	62
1301	14118	0.2570005424	61
1301	14118	0.2570005424	60
1301	14118	0.2570005424	59
1301	14118	0.2570005424	58
1301	14118	0.2570005424	57
1301	14118	0.2570005424	56
1301	14118	0.2570005424	55
1301	14118	0.2570005424	54
1301	14118	0.2570005424	53
1301	14118	0.2570005424	52
1301	14118	0.2570005424	51
1301	14118	0.2570005424	50
1301	14118	0.2570005424	49
1301	14118	0.2570005424	48
1301	14118	0.2570005424	47
1301	14118	0.2570005424	46
1301	14118	0.2570005424	45
1301	14118	0.2570005424	44
1301	14118	0.2570005424	43
1301	14118	0.2570005424	42
1301	14118	0.2570005424	41
1301	14118	0.2570005424	40
1301	14118	0.2570005424	39
1301	14118	0.2570005424	38
1301	14118	0.2570005424	37
1301	14118	0.2570005424	36
1301	14118	0.2570005424	35
1301	14118	0.2570005424	34
1301	14118	0.2570005424	33
1301	14118	0.2570005424	32
1301	14118	0.2570005424	31
1301	14118	0.2570005424	30
1301	14118	0.2570005424	29
1301	14118	0.2570005424	28
1301	14118	0.2570005424	27
1301	14118	0.2570005424	26
1301	14118	0.2570005424	25
1301	14118	0.2570005424	24
1301	14118	0.2570005424	23
1301	14118	0.2570005424	22
1301	14118	0.2570005424	21
1301	14118	0.2570005424	20
1301	14118	0.2570005424	19
1301	14118	0.2570005424	18
1301	14118	0.2570005424	17
1301	14118	0.2570005424	16
1301	14118	0.2570005424	15
1301	14118	0.2570005424	14
1301	14118	0.2570005424	13
1301	14118	0.2570005424	12
1301	14118	0.2570005424	11
1301	14118	0.2570005424	10
1301	14118	0.2570005424	9
1301	14118	0.2570005424	8
1301	14118	0.2570005424	7
1301	14118	0.2570005424	6
1301	14118	0.2570005424	5
1301	14118	0.2570005424	4
1301	14118	0.2570005424	3
1301	14118	0.2570005424	2
1301	14118	0.2570005424	1
1301	14118	0.2570005424	0
1304	651	0.0070001912	0
1304	11239	0.2070005424	0
1304	21885	0.4070022536	0
1305	597	0.007	1
1305	597	0.007	0
1305	598	0.007	1
1305	599	0.007	2
1305	600	0.007	3
1305	601	0.007	4
1305	602	0.007	5
1305	603	0.007	6
1305	604	0.007	7
1305	605	0.007	8
1305	606	0.007	9
1305	607	0.007	10
1305	608	0.007	11
1305	651	0.0070001912	10
1305	651	0.0070001912	9
1305	651	0.0070001912	8
1305	651	0.0070001912	7
1305	651	0.0070001912	6
1305	651	0.0070001912	5
1305	651	0.0070001912	4
1305	651	0.0070001912	3
1305	651	0.0070001912	2
1305	651	0.0070001912	1
1305	651	0.0070001912	0
1305	922	0.013	1
1305	923	0.013	2
1305	924	0.013	3
1305	925	0.013	4
1305	926	0.013	5
1305	927	0.013	6
1305	928	0.013	7
1305	929	0.013	8
1305	930	0.013	9
1305	931	0.013	10
1305	932	0.013	11
1305	933	0.013	12
1305	1186	0.019	13
1305	1187	0.019	14
1305	1188	0.019	15
1305	1189	0.019	16
1305	1190	0.019	17
1305	1191	0.019	18
1305	1192	0.019	19
1305	1193	0.019	20
1305	1194	0.019	21
1305	1195	0.019	22
1305	1196	0.019	23
1305	1197	0.019	24
1305	1469	0.025	25
1305	1470	0.025	26
1305	1471	0.025	27
1305	1472	0.025	28
1305	1473	0.025	29
1305	1474	0.025	30
1305	1475	0.025	31
1305	1476	0.025	32
1305	1477	0.025	33
1305	1478	0.025	34
1305	1479	0.025	35
1305	1480	0.025	36
1305	1789	0.031	37
1305	1790	0.031	38
1305	1791	0.031	39
1305	1792	0.031	40
1305	1793	0.031	41
1305	1794	0.031	42
1305	1795	0.031	43
1305	1796	0.031	44
1305	1797	0.031	45
1305	1798	0.031	46
1305	1799	0.031	47
1305	1800	0.031	48
1305	2196	0.037	49
1305	2197	0.037	50
1305	2198	0.037	51
1305	2199	0.037	52
1305	2200	0.037	53
1305	2201	0.037	54
1305	2202	0.037	55
1305	2203	0.037	56
1305	2204	0.037	57
1305	2205	0.037	58
1305	2206	0.037	59
1305	2207	0.037	60
1305	2550	0.043	61
1305	2551	0.043	62
1305	2552	0.043	63
1305	2553	0.043	64
1305	2554	0.043	65
1305	2555	0.043	66
1305	2556	0.043	67
1305	2557	0.043	68
1305	2558	0.043	69
1305	2559	0.043	70
1305	2560	0.043	71
1305	2561	0.043	72
1305	2874	0.049	73
1305	2875	0.049	74
1305	2876	0.049	75
1305	2877	0.049	76
1305	2878	0.049	77
1305	2879	0.049	78
1305	2880	0.049	79
1305	2881	0.049	80
1305	2882	0.049	81
1305	2883	0.049	82
1305	2884	0.049	83
1305	2885	0.049	84
1305	3213	0.055	85
1305	3214	0.055	86
1305	3215	0.055	87
1305	3216	0.055	88
1305	3217	0.055	89
1305	3218	0.055	90
1305	3219	0.055	91
1305	3220	0.055	92
1305	3221	0.055	93
1305	3222	0.055	94
1305	3223	0.055	95
1305	3224	0.055	96
1305	11239	0.2070005424	95
1305	11239	0.2070005424	94
1305	11239	0.2070005424	93
1305	11239	0.2070005424	92
1305	11239	0.2070005424	91
1305	11239	0.2070005424	90
1305	11239	0.2070005424	89
1305	11239	0.2070005424	88
1305	11239	0.2070005424	87
1305	11239	0.2070005424	86
1305	11239	0.2070005424	85
1305	11239	0.2070005424	84
1305	11239	0.2070005424	83
1305	11239	0.2070005424	82
1305	11239	0.2070005424	81
1305	11239	0.2070005424	80
1305	11239	0.2070005424	79
1305	11239	0.2070005424	78
1305	11239	0.2070005424	77
1305	11239	0.2070005424	76
1305	11239	0.2070005424	75
1305	11239	0.2070005424	74
1305	11239	0.2070005424	73
1305	11239	0.2070005424	72
1305	11239	0.2070005424	71
1305	11239	0.2070005424	70
1305	11239	0.2070005424	69
1305	11239	0.2070005424	68
1305	11239	0.2070005424	67
1305	11239	0.2070005424	66
1305	11239	0.2070005424	65
1305	11239	0.2070005424	64
1305	11239	0.2070005424	63
1305	11239	0.2070005424	62
1305	11239	0.2070005424	61
1305	11239	0.2070005424	60
1305	11239	0.2070005424	59
1305	11239	0.2070005424	58
1305	11239	0.2070005424	57
1305	11239	0.2070005424	56
1305	11239	0.2070005424	55
1305	11239	0.2070005424	54
1305	11239	0.2070005424	53
1305	11239	0.2070005424	52
1305	11239	0.2070005424	51
1305	11239	0.2070005424	50
1305	11239	0.2070005424	49
1305	11239	0.2070005424	48
1305	11239	0.2070005424	47
1305	11239	0.2070005424	46
1305	11239	0.2070005424	45
1305	11239	0.2070005424	44
1305	11239	0.2070005424	43
1305	11239	0.2070005424	42
1305	11239	0.2070005424	41
1305	11239	0.2070005424	40
1305	11239	0.2070005424	39
1305	11239	0.2070005424	38
1305	11239	0.2070005424	37
1305	11239	0.2070005424	36
1305	11239	0.2070005424	35
1305	11239	0.2070005424	34
1305	11239	0.2070005424	33
1305	11239	0.2070005424	32
1305	11239	0.2070005424	31
1305	11239	0.2070005424	30
1305	11239	0.2070005424	29
1305	11239	0.2070005424	28
1305	11239	0.2070005424	27
1305	11239	0.2070005424	26
1305	11239	0.2070005424	25
1305	11239	0.2070005424	24
1305	11239	0.2070005424	23
1305	11239	0.2070005424	22
1305	11239	0.2070005424	21
1305	11239	0.2070005424	20
1305	11239	0.2070005424	19
1305	11239	0.2070005424	18
1305	11239	0.2070005424	17
1305	11239	0.2070005424	16
1305	11239	0.2070005424	15
1305	11239	0.2070005424	14
1305	11239	0.2070005424	13
1305	11239	0.2070005424	12
1305	11239	0.2070005424	11
1305	11239	0.2070005424	10
1305	11239	0.2070005424	9
1305	11239	0.2070005424	8
1305	11239	0.2070005424	7
1305	11239	0.2070005424	6
1305	11239	0.2070005424	5
1305	11239	0.2070005424	4
1305	11239	0.2070005424	3
1305	11239	0.2070005424	2
1305	11239	0.2070005424	1
1305	11239	0.2070005424	0
1319	959	0.013945144669	7504
1319	148105	3.013945144669	7504
1320	959	0.013945144669	7504
1320	148105	3.013945144669	7504
1322	959	0.013945144669	0
1322	148105	3.013945144669	0
1333	959	0.013945144669	0
1333	148105	3.013945144669	0
1343	1275	0.020429364846	7504
1343	148489	3.020429364846	7504
1344	1275	0.020429364846	7504
1344	148489	3.020429364846	7504
1346	1275	0.020429364846	0
1346	148489	3.020429364846	0
1357	1275	0.020429364846	0
1357	148489	3.020429364846	0
1367	1370	0.023409340573	7504
1367	148608	3.023409340573	7504
1368	1370	0.023409340573	7504
1368	148608	3.023409340573	7504
1370	1370	0.023409340573	0
1370	148608	3.023409340573	0
1381	1370	0.023409340573	0
1381	148608	3.023409340573	0
1391	1677	0.029577355213	7504
1391	148946	3.029577355213	7504
1392	1677	0.029577355213	7504
1392	148946	3.029577355213	7504
1394	1677	0.029577355213	0
1394	148946	3.029577355213	0
1405	1677	0.029577355213	0
1405	148946	3.029577355213	0
1415	1843	0.031389955268	7504
1415	149084	3.031389955268	7504
1416	1843	0.031389955268	7504
1416	149084	3.031389955268	7504
1418	1843	0.031389955268	0
1418	149084	3.031389955268	0
1429	1843	0.031389955268	0
1429	149084	3.031389955268	0
1439	1914	0.032763117831	7504
1439	149186	3.032763117831	7504
1440	1914	0.032763117831	7504
1440	149186	3.032763117831	7504
1442	1914	0.032763117831	0
1442	149186	3.032763117831	0
1453	1914	0.032763117831	0
1453	149186	3.032763117831	0
1463	1922	0.03277608233	7504
1463	149193	3.03277608233	7504
1464	1922	0.03277608233	7504
1464	149193	3.03277608233	7504
1466	1922	0.03277608233	0
1466	149193	3.03277608233	0
1477	1922	0.03277608233	0
1477	149193	3.03277608233	0
1487	1974	0.033984720812	7504
1487	149242	3.033984720812	7504
1488	1974	0.033984720812	7504
1488	149242	3.033984720812	7504
1490	1974	0.033984720812	0
1490	149242	3.033984720812	0
1501	1974	0.033984720812	0
1501	149242	3.033984720812	0
1511	3027	0.051714848483	7504
1512	3027	0.051714848483	7504
1514	3027	0.051714848483	0
1525	3027	0.051714848483	0
1535	3571	0.059049774688	7504
1536	3571	0.059049774688	7504
1538	3571	0.059049774688	0
1549	3571	0.059049774688	0
1559	3628	0.060278170027	7504
1560	3628	0.060278170027	7504
1562	3628	0.060278170027	0
1573	3628	0.060278170027	0
1583	3771	0.062601716756	7504
1584	3771	0.062601716756	7504
1586	3771	0.062601716756	0
1597	3771	0.062601716756	0
1607	4511	0.076266208328	7504
1608	4511	0.076266208328	7504
1610	4511	0.076266208328	0
1621	4511	0.076266208328	0
1631	4833	0.082919128996	7504
1632	4833	0.082919128996	7504
1634	4833	0.082919128996	0
1645	4833	0.082919128996	0
1655	4870	0.083256449993	7504
1656	4870	0.083256449993	7504
1658	4870	0.083256449993	0
1669	4870	0.083256449993	0
1679	5138	0.087465974346	7504
1680	5138	0.087465974346	7504
1682	5138	0.087465974346	0
1693	5138	0.087465974346	0
1703	5205	0.089455451544	7504
1704	5205	0.089455451544	7504
1706	5205	0.089455451544	0
1717	5205	0.089455451544	0
1727	5481	0.093058322349	7504
1728	5481	0.093058322349	7504
1730	5481	0.093058322349	0
1741	5481	0.093058322349	0
1751	5489	0.093147725489	7504
1752	5489	0.093147725489	7504
1754	5489	0.093147725489	0
1765	5489	0.093147725489	0
1775	5807	0.098821217397	7504
1776	5807	0.098821217397	7504
1778	5807	0.098821217397	0
1789	5807	0.098821217397	0
