file 6121916 1589562594                                         
version 2
run CAIN-27-20200515-14:06:01-16440
attr configname CAIN
attr datetime 20200515-14:06:01
attr dist 200
attr experiment CAIN
attr inifile omnetpp.ini
attr iterationvars "$numUe=20, $pwr=-50, $dist=200, $mob=\"./movements/RWPRPGM-0.5.movements\""
attr iterationvars2 "$numUe=20, $pwr=-50, $dist=200, $mob=\"./movements/RWPRPGM-0.5.movements\", $repetition=2"
attr measurement "$numUe=20, $pwr=-50, $dist=200, $mob=\"./movements/RWPRPGM-0.5.movements\""
attr mob "\"./movements/RWPRPGM-0.5.movements\""
attr network lte.simulations.networks.CAIN
attr numUe 20
attr processid 16440
attr pwr -50
attr repetition 2
attr replication #2
attr resultdir results
attr runnumber 27
attr seedset 2
param **.**.amcMode "\"AUTO\""
param **.amcMode "\"D2D\""
param **.cainNetwork true
param **.channelControl.alpha 1.0
param **.channelControl.carrierFrequency 2100e+6Hz
param **.channelControl.pMax 10W
param **.d2dCqi 7
param **.deployer.numRbDl 50
param **.deployer.numRbUl 50
param **.distThresh ${dist=200}
param **.fbDelay 1
param **.feedbackComputation "xmldoc(\"config_channel.xml\")"
param **.mobility.constraintAreaMaxX 1000m
param **.mobility.constraintAreaMaxY 1000m
param **.mobility.constraintAreaMaxZ 0m
param **.mobility.constraintAreaMinX 0m
param **.mobility.constraintAreaMinY 0m
param **.mobility.constraintAreaMinZ 0m
param **.nic.phy.channelModel "xmldoc(\"config_channel.xml\")"
param **.numBands 50
param **.pwrThresh "${pwr= -50}"
param **.qtdThresh 3
param **.rbAllocationType "\"localized\""
param **.routingRecorder.enabled false
param **.tcpApp[*].tClose -1s
param **.ueD2DTx[*].mobility.changeAngleBy "normal(0deg, 30deg)"
param **.ueD2DTx[*].mobility.changeInterval "normal(5s, 0.1s)"
param **.ueD2DTx[*].mobility.nodeId -1
param **.ueD2DTx[*].mobility.speed "normal(2mps, 0.01mps)"
param **.ueD2DTx[*].mobility.traceFile "${mob=\"./movements/RWP-0.0.movements\",\"./movements/RWP-0.5.movements\",\"./movements/RPGM-0.0.movements\",\"./movements/RPGM-0.5.movements\",\"./movements/RWPRPGM-0.0.movements\",\"./movements/RWPRPGM-0.5.movements\"}"
param **.ueD2DTx[*].mobilityType "\"BonnMotionMobility\""
param **.usePreconfiguredTxParams false
param *.eNodeB*.numX2Apps 1
param *.eNodeB*.x2App[*].server.localPort "5000 + ancestorIndex(1)"
param *.eNodeB.d2dCapable false
param *.eNodeB.mobility.initFromDisplayString false
param *.eNodeB.mobility.initialX 300m
param *.eNodeB.mobility.initialY 300m
param *.eNodeB.nic.phy.enableD2DCqiReporting true
param *.eNodeB.txPower 19952.62315mw
param *.eNodeB.x2App[0].client.connectAddress "\"eNodeB1%x2ppp0\""
param *.eNodeB1.d2dCapable true
param *.eNodeB1.mobility.initFromDisplayString false
param *.eNodeB1.mobility.initialX 700m
param *.eNodeB1.mobility.initialY 300m
param *.eNodeB1.nic.phy.enableD2DCqiReporting true
param *.eNodeB1.txPower 19952.62315mw
param *.eNodeB1.x2App[0].client.connectAddress "\"eNodeB%x2ppp0\""
param *.extCell[*].bandAllocationType "\"FULL_ALLOC\""
param *.extCell[*].bandUtilization 0.5
param *.extCell[*].txDirection "\"ANISOTROPIC\""
param *.extCell[*].txPower 20
param *.extCell[0].position_x 100m
param *.extCell[0].position_y 600m
param *.extCell[0].txAngle 315
param *.extCell[1].position_x 600m
param *.extCell[1].position_y 600m
param *.extCell[1].txAngle 225
param *.numExtCells 2
param *.numUeCell 0
param *.numUeD2DRx 1
param *.numUeD2DTx 1
param *.ue*.macCellId 1
param *.ue*.masterId 1
param *.ue*.mobility.initFromDisplayString false
param *.ue*[0].macCellId 1
param *.ue*[0].masterId 1
param *.ue*[0].mobility.initFromDisplayString false
param *.ueD2D*.numTcpApps 1
param *.ueD2D*[*].d2dCapable true
param *.ueD2D*[0].d2dCapable false
param *.ueD2D*[0].numTcpApps 1
param *.ueD2DRx[0].mobility.initialX 310m
param *.ueD2DRx[0].mobility.initialY 350m
param *.ueD2DRx[0].tcpApp[*].localPort 1000
param *.ueD2DRx[0].tcpApp[*].typename "\"TCPSinkApp\""
param *.ueD2DTx*.nic.d2dPeerAddresses "\"ueD2DTx[1]\""
param *.ueD2DTx*.tcpApp[*].connectAddress "\"ueD2DTx[0]\""
param *.ueD2DTx*.tcpApp[*].localAddress "\"ueD2DTx\""
param *.ueD2DTx*.tcpApp[*].localPort 1000
param *.ueD2DTx*.tcpApp[*].sendBytes 1GiB
param *.ueD2DTx*.tcpApp[*].typename "\"TCPSessionApp\""
param *.ueD2DTx*.tcpApp[0].active true
param *.ueD2DTx*.tcpApp[0].connectPort 1000
param *.ueD2DTx*.tcpApp[0].tOpen uniform(0.010s,0.1s)
param *.ueD2DTx*.tcpApp[0].tSend uniform(0.15s,0.5s)
param *.ueD2DTx[0].mobility.initialX 290m
param *.ueD2DTx[0].mobility.initialY 350m
param *.ueD2DTx[0].tcpApp[*].localPort 1000
param *.ueD2DTx[0].tcpApp[*].sendBytes 1GiB
param *.ueD2DTx[0].tcpApp[*].typename "\"TCPSessionApp\""
param *.ueD2DTx[0].tcpApp[0].active true
param *.ueD2DTx[0].tcpApp[0].connectAddress "\"ueD2DRx[0]\""
param *.ueD2DTx[0].tcpApp[0].connectPort 1000
param *.ueD2DTx[0].tcpApp[0].localAddress "\"ueD2DTx[0]\""
param *.ueD2DTx[0].tcpApp[0].tOpen uniform(0.010s,0.1s)
param *.ueD2DTx[0].tcpApp[0].tSend uniform(0.15s,0.5s)

vector 8  CAIN.server.ppp[0].queue  queueLength:vector  ETV
attr interpolationmode  sample-hold
attr title  "queue length, vector"
vector 9  CAIN.server.ppp[0].ppp  txState:vector  ETV
attr interpolationmode  sample-hold
attr title  "tx state, vector"
vector 24  CAIN.router.ppp[0].queue  queueLength:vector  ETV
attr interpolationmode  sample-hold
attr title  "queue length, vector"
vector 25  CAIN.router.ppp[0].ppp  txState:vector  ETV
attr interpolationmode  sample-hold
attr title  "tx state, vector"
vector 35  CAIN.router.ppp[1].queue  queueLength:vector  ETV
attr interpolationmode  sample-hold
attr title  "queue length, vector"
vector 36  CAIN.router.ppp[1].ppp  txState:vector  ETV
attr interpolationmode  sample-hold
attr title  "tx state, vector"
vector 56  CAIN.pgw.ppp[0].queue  queueLength:vector  ETV
attr interpolationmode  sample-hold
attr title  "queue length, vector"
vector 57  CAIN.pgw.ppp[0].ppp  txState:vector  ETV
attr interpolationmode  sample-hold
attr title  "tx state, vector"
vector 67  CAIN.pgw.ppp[1].queue  queueLength:vector  ETV
attr interpolationmode  sample-hold
attr title  "queue length, vector"
vector 68  CAIN.pgw.ppp[1].ppp  txState:vector  ETV
attr interpolationmode  sample-hold
attr title  "tx state, vector"
vector 78  CAIN.pgw.pppInterface.queue  queueLength:vector  ETV
attr interpolationmode  sample-hold
attr title  "queue length, vector"
vector 79  CAIN.pgw.pppInterface.ppp  txState:vector  ETV
attr interpolationmode  sample-hold
attr title  "tx state, vector"
vector 120  CAIN.eNodeB.pppIf.queue  queueLength:vector  ETV
attr interpolationmode  sample-hold
attr title  "queue length, vector"
vector 121  CAIN.eNodeB.pppIf.ppp  txState:vector  ETV
attr interpolationmode  sample-hold
attr title  "tx state, vector"
vector 131  CAIN.eNodeB.x2ppp[0].queue  queueLength:vector  ETV
attr interpolationmode  sample-hold
attr title  "queue length, vector"
vector 132  CAIN.eNodeB.x2ppp[0].ppp  txState:vector  ETV
attr interpolationmode  sample-hold
attr title  "tx state, vector"
vector 178  CAIN.eNodeB1.pppIf.queue  queueLength:vector  ETV
attr interpolationmode  sample-hold
attr title  "queue length, vector"
vector 179  CAIN.eNodeB1.pppIf.ppp  txState:vector  ETV
attr interpolationmode  sample-hold
attr title  "tx state, vector"
vector 189  CAIN.eNodeB1.x2ppp[0].queue  queueLength:vector  ETV
attr interpolationmode  sample-hold
attr title  "queue length, vector"
vector 190  CAIN.eNodeB1.x2ppp[0].ppp  txState:vector  ETV
attr interpolationmode  sample-hold
attr title  "tx state, vector"
vector 231  CAIN.ueD2DTx[0].nic.phy  servingCell:vector  ETV
attr source  servingCell
attr title  "ID of the serving eNodeB for the UE, vector"
attr unit  ""
vector 263  CAIN.ueD2DTx[1].nic.phy  servingCell:vector  ETV
attr source  servingCell
attr title  "ID of the serving eNodeB for the UE, vector"
attr unit  ""
vector 295  CAIN.ueD2DTx[2].nic.phy  servingCell:vector  ETV
attr source  servingCell
attr title  "ID of the serving eNodeB for the UE, vector"
attr unit  ""
vector 327  CAIN.ueD2DTx[3].nic.phy  servingCell:vector  ETV
attr source  servingCell
attr title  "ID of the serving eNodeB for the UE, vector"
attr unit  ""
vector 359  CAIN.ueD2DTx[4].nic.phy  servingCell:vector  ETV
attr source  servingCell
attr title  "ID of the serving eNodeB for the UE, vector"
attr unit  ""
vector 391  CAIN.ueD2DTx[5].nic.phy  servingCell:vector  ETV
attr source  servingCell
attr title  "ID of the serving eNodeB for the UE, vector"
attr unit  ""
vector 423  CAIN.ueD2DTx[6].nic.phy  servingCell:vector  ETV
attr source  servingCell
attr title  "ID of the serving eNodeB for the UE, vector"
attr unit  ""
vector 455  CAIN.ueD2DTx[7].nic.phy  servingCell:vector  ETV
attr source  servingCell
attr title  "ID of the serving eNodeB for the UE, vector"
attr unit  ""
vector 487  CAIN.ueD2DTx[8].nic.phy  servingCell:vector  ETV
attr source  servingCell
attr title  "ID of the serving eNodeB for the UE, vector"
attr unit  ""
vector 519  CAIN.ueD2DTx[9].nic.phy  servingCell:vector  ETV
attr source  servingCell
attr title  "ID of the serving eNodeB for the UE, vector"
attr unit  ""
vector 551  CAIN.ueD2DTx[10].nic.phy  servingCell:vector  ETV
attr source  servingCell
attr title  "ID of the serving eNodeB for the UE, vector"
attr unit  ""
vector 583  CAIN.ueD2DTx[11].nic.phy  servingCell:vector  ETV
attr source  servingCell
attr title  "ID of the serving eNodeB for the UE, vector"
attr unit  ""
vector 615  CAIN.ueD2DTx[12].nic.phy  servingCell:vector  ETV
attr source  servingCell
attr title  "ID of the serving eNodeB for the UE, vector"
attr unit  ""
vector 647  CAIN.ueD2DTx[13].nic.phy  servingCell:vector  ETV
attr source  servingCell
attr title  "ID of the serving eNodeB for the UE, vector"
attr unit  ""
vector 679  CAIN.ueD2DTx[14].nic.phy  servingCell:vector  ETV
attr source  servingCell
attr title  "ID of the serving eNodeB for the UE, vector"
attr unit  ""
vector 711  CAIN.ueD2DTx[15].nic.phy  servingCell:vector  ETV
attr source  servingCell
attr title  "ID of the serving eNodeB for the UE, vector"
attr unit  ""
vector 743  CAIN.ueD2DTx[16].nic.phy  servingCell:vector  ETV
attr source  servingCell
attr title  "ID of the serving eNodeB for the UE, vector"
attr unit  ""
vector 775  CAIN.ueD2DTx[17].nic.phy  servingCell:vector  ETV
attr source  servingCell
attr title  "ID of the serving eNodeB for the UE, vector"
attr unit  ""
vector 807  CAIN.ueD2DTx[18].nic.phy  servingCell:vector  ETV
attr source  servingCell
attr title  "ID of the serving eNodeB for the UE, vector"
attr unit  ""
vector 839  CAIN.ueD2DTx[19].nic.phy  servingCell:vector  ETV
attr source  servingCell
attr title  "ID of the serving eNodeB for the UE, vector"
attr unit  ""
vector 863  CAIN.eNodeB.sctp  "Throughput of Association 3"  ETV
vector 885  CAIN.eNodeB1.sctp  "Throughput of Association 4"  ETV
vector 907  CAIN.eNodeB.sctp  "Throughput of Association 1"  ETV
vector 927  CAIN.eNodeB.sctp  "Fast Recovery State 1:10.0.5.2"  ETV
vector 956  CAIN.eNodeB1.sctp  "Throughput of Association 2"  ETV
vector 976  CAIN.eNodeB1.sctp  "Fast Recovery State 2:10.0.5.1"  ETV
vector 128  CAIN.eNodeB.x2ppp[0].queue  rcvdPk:vector(packetBytes)  ETV
attr interpolationmode  none
attr title  "received packets, vector(packetBytes)"
vector 130  CAIN.eNodeB.x2ppp[0].queue  queueingTime:vector  ETV
attr interpolationmode  none
attr title  "queueing time, vector"
vector 186  CAIN.eNodeB1.x2ppp[0].queue  rcvdPk:vector(packetBytes)  ETV
attr interpolationmode  none
attr title  "received packets, vector(packetBytes)"
vector 188  CAIN.eNodeB1.x2ppp[0].queue  queueingTime:vector  ETV
attr interpolationmode  none
attr title  "queueing time, vector"
vector 137  CAIN.eNodeB.x2ppp[0].ppp  rcvdPkFromHL:vector(packetBytes)  ETV
attr interpolationmode  none
attr source  packetReceivedFromUpper
attr title  "packets received from higher layer, vector(packetBytes)"
vector 133  CAIN.eNodeB.x2ppp[0].ppp  txPk:vector(packetBytes)  ETV
attr interpolationmode  none
attr source  packetSentToLower
attr title  "packets transmitted, vector(packetBytes)"
vector 195  CAIN.eNodeB1.x2ppp[0].ppp  rcvdPkFromHL:vector(packetBytes)  ETV
attr interpolationmode  none
attr source  packetReceivedFromUpper
attr title  "packets received from higher layer, vector(packetBytes)"
vector 191  CAIN.eNodeB1.x2ppp[0].ppp  txPk:vector(packetBytes)  ETV
attr interpolationmode  none
attr source  packetSentToLower
attr title  "packets transmitted, vector(packetBytes)"
vector 192  CAIN.eNodeB1.x2ppp[0].ppp  rxPkOk:vector(packetBytes)  ETV
attr interpolationmode  none
attr source  rxPkOk
attr title  "packets received OK, vector(packetBytes)"
vector 196  CAIN.eNodeB1.x2ppp[0].ppp  passedUpPk:vector(packetBytes)  ETV
attr interpolationmode  none
attr source  packetSentToUpper
attr title  "packets passed to higher layer, vector(packetBytes)"
vector 134  CAIN.eNodeB.x2ppp[0].ppp  rxPkOk:vector(packetBytes)  ETV
attr interpolationmode  none
attr source  rxPkOk
attr title  "packets received OK, vector(packetBytes)"
vector 138  CAIN.eNodeB.x2ppp[0].ppp  passedUpPk:vector(packetBytes)  ETV
attr interpolationmode  none
attr source  packetSentToUpper
attr title  "packets passed to higher layer, vector(packetBytes)"
vector 1005  CAIN.eNodeB1.sctp  "Throughput of Association 4"  ETV
vector 882  CAIN.eNodeB1.sctp  "Peer Rwnd 4"  ETV
vector 1025  CAIN.eNodeB1.sctp  "Fast Recovery State 5:10.0.4.1"  ETV
vector 1052  CAIN.eNodeB1.sctp  "Fast Recovery State 5:10.0.2.2"  ETV
vector 1079  CAIN.eNodeB1.sctp  "Fast Recovery State 5:10.0.5.1"  ETV
vector 1108  CAIN.eNodeB.sctp  "Throughput of Association 3"  ETV
vector 860  CAIN.eNodeB.sctp  "Peer Rwnd 3"  ETV
vector 1128  CAIN.eNodeB.sctp  "Fast Recovery State 6:10.0.4.2"  ETV
vector 1155  CAIN.eNodeB.sctp  "Fast Recovery State 6:10.0.3.2"  ETV
vector 1182  CAIN.eNodeB.sctp  "Fast Recovery State 6:10.0.5.2"  ETV
vector 904  CAIN.eNodeB.sctp  "Peer Rwnd 1"  ETV
vector 1209  CAIN.eNodeB.sctp  "Fast Recovery State 1:10.0.4.2"  ETV
vector 1236  CAIN.eNodeB.sctp  "Fast Recovery State 1:10.0.3.2"  ETV
vector 953  CAIN.eNodeB1.sctp  "Peer Rwnd 2"  ETV
vector 1263  CAIN.eNodeB1.sctp  "Fast Recovery State 2:10.0.4.1"  ETV
vector 1290  CAIN.eNodeB1.sctp  "Fast Recovery State 2:10.0.2.2"  ETV
vector 1035  CAIN.eNodeB1.sctp  "Slow Start Threshold 5:10.0.2.2"  ETV
vector 1036  CAIN.eNodeB1.sctp  "Congestion Window 5:10.0.2.2"  ETV
vector 1037  CAIN.eNodeB1.sctp  "Bandwidth 5:10.0.2.2"  ETV
vector 1040  CAIN.eNodeB1.sctp  "HB Sent 5:10.0.2.2"  ETV
vector 1033  CAIN.eNodeB1.sctp  "RTO 5:10.0.2.2"  ETV
vector 1008  CAIN.eNodeB1.sctp  "Slow Start Threshold 5:10.0.4.1"  ETV
vector 1009  CAIN.eNodeB1.sctp  "Congestion Window 5:10.0.4.1"  ETV
vector 1010  CAIN.eNodeB1.sctp  "Bandwidth 5:10.0.4.1"  ETV
vector 1013  CAIN.eNodeB1.sctp  "HB Sent 5:10.0.4.1"  ETV
vector 1006  CAIN.eNodeB1.sctp  "RTO 5:10.0.4.1"  ETV
vector 1062  CAIN.eNodeB1.sctp  "Slow Start Threshold 5:10.0.5.1"  ETV
vector 1063  CAIN.eNodeB1.sctp  "Congestion Window 5:10.0.5.1"  ETV
vector 1064  CAIN.eNodeB1.sctp  "Bandwidth 5:10.0.5.1"  ETV
vector 1060  CAIN.eNodeB1.sctp  "RTO 5:10.0.5.1"  ETV
vector 1138  CAIN.eNodeB.sctp  "Slow Start Threshold 6:10.0.3.2"  ETV
vector 1139  CAIN.eNodeB.sctp  "Congestion Window 6:10.0.3.2"  ETV
vector 1140  CAIN.eNodeB.sctp  "Bandwidth 6:10.0.3.2"  ETV
vector 1143  CAIN.eNodeB.sctp  "HB Sent 6:10.0.3.2"  ETV
vector 1136  CAIN.eNodeB.sctp  "RTO 6:10.0.3.2"  ETV
vector 1111  CAIN.eNodeB.sctp  "Slow Start Threshold 6:10.0.4.2"  ETV
vector 1112  CAIN.eNodeB.sctp  "Congestion Window 6:10.0.4.2"  ETV
vector 1113  CAIN.eNodeB.sctp  "Bandwidth 6:10.0.4.2"  ETV
vector 1116  CAIN.eNodeB.sctp  "HB Sent 6:10.0.4.2"  ETV
vector 1109  CAIN.eNodeB.sctp  "RTO 6:10.0.4.2"  ETV
vector 1165  CAIN.eNodeB.sctp  "Slow Start Threshold 6:10.0.5.2"  ETV
vector 1166  CAIN.eNodeB.sctp  "Congestion Window 6:10.0.5.2"  ETV
vector 1167  CAIN.eNodeB.sctp  "Bandwidth 6:10.0.5.2"  ETV
vector 1163  CAIN.eNodeB.sctp  "RTO 6:10.0.5.2"  ETV
vector 916  CAIN.eNodeB.sctp  "HB ACK Sent 1:10.0.5.2"  ETV
vector 917  CAIN.eNodeB.sctp  "HB Received 1:10.0.5.2"  ETV
vector 965  CAIN.eNodeB1.sctp  "HB ACK Sent 2:10.0.5.1"  ETV
vector 966  CAIN.eNodeB1.sctp  "HB Received 2:10.0.5.1"  ETV
vector 1219  CAIN.eNodeB.sctp  "Slow Start Threshold 1:10.0.3.2"  ETV
vector 1220  CAIN.eNodeB.sctp  "Congestion Window 1:10.0.3.2"  ETV
vector 1221  CAIN.eNodeB.sctp  "Bandwidth 1:10.0.3.2"  ETV
vector 1224  CAIN.eNodeB.sctp  "HB Sent 1:10.0.3.2"  ETV
vector 1217  CAIN.eNodeB.sctp  "RTO 1:10.0.3.2"  ETV
vector 1192  CAIN.eNodeB.sctp  "Slow Start Threshold 1:10.0.4.2"  ETV
vector 1193  CAIN.eNodeB.sctp  "Congestion Window 1:10.0.4.2"  ETV
vector 1194  CAIN.eNodeB.sctp  "Bandwidth 1:10.0.4.2"  ETV
vector 1197  CAIN.eNodeB.sctp  "HB Sent 1:10.0.4.2"  ETV
vector 1190  CAIN.eNodeB.sctp  "RTO 1:10.0.4.2"  ETV
vector 910  CAIN.eNodeB.sctp  "Slow Start Threshold 1:10.0.5.2"  ETV
vector 911  CAIN.eNodeB.sctp  "Congestion Window 1:10.0.5.2"  ETV
vector 912  CAIN.eNodeB.sctp  "Bandwidth 1:10.0.5.2"  ETV
vector 908  CAIN.eNodeB.sctp  "RTO 1:10.0.5.2"  ETV
vector 1273  CAIN.eNodeB1.sctp  "Slow Start Threshold 2:10.0.2.2"  ETV
vector 1274  CAIN.eNodeB1.sctp  "Congestion Window 2:10.0.2.2"  ETV
vector 1275  CAIN.eNodeB1.sctp  "Bandwidth 2:10.0.2.2"  ETV
vector 1278  CAIN.eNodeB1.sctp  "HB Sent 2:10.0.2.2"  ETV
vector 1271  CAIN.eNodeB1.sctp  "RTO 2:10.0.2.2"  ETV
vector 1246  CAIN.eNodeB1.sctp  "Slow Start Threshold 2:10.0.4.1"  ETV
vector 1247  CAIN.eNodeB1.sctp  "Congestion Window 2:10.0.4.1"  ETV
vector 1248  CAIN.eNodeB1.sctp  "Bandwidth 2:10.0.4.1"  ETV
vector 1251  CAIN.eNodeB1.sctp  "HB Sent 2:10.0.4.1"  ETV
vector 1244  CAIN.eNodeB1.sctp  "RTO 2:10.0.4.1"  ETV
vector 959  CAIN.eNodeB1.sctp  "Slow Start Threshold 2:10.0.5.1"  ETV
vector 960  CAIN.eNodeB1.sctp  "Congestion Window 2:10.0.5.1"  ETV
vector 961  CAIN.eNodeB1.sctp  "Bandwidth 2:10.0.5.1"  ETV
vector 957  CAIN.eNodeB1.sctp  "RTO 2:10.0.5.1"  ETV
vector 1173  CAIN.eNodeB.sctp  "HB ACK Received 6:10.0.5.2"  ETV
vector 1164  CAIN.eNodeB.sctp  "RTT 6:10.0.5.2"  ETV
vector 1070  CAIN.eNodeB1.sctp  "HB ACK Received 5:10.0.5.1"  ETV
vector 1061  CAIN.eNodeB1.sctp  "RTT 5:10.0.5.1"  ETV
vector 1171  CAIN.eNodeB.sctp  "HB ACK Sent 6:10.0.5.2"  ETV
vector 1172  CAIN.eNodeB.sctp  "HB Received 6:10.0.5.2"  ETV
vector 1068  CAIN.eNodeB1.sctp  "HB ACK Sent 5:10.0.5.1"  ETV
vector 1069  CAIN.eNodeB1.sctp  "HB Received 5:10.0.5.1"  ETV
vector 967  CAIN.eNodeB1.sctp  "HB ACK Received 2:10.0.5.1"  ETV
vector 958  CAIN.eNodeB1.sctp  "RTT 2:10.0.5.1"  ETV
vector 918  CAIN.eNodeB.sctp  "HB ACK Received 1:10.0.5.2"  ETV
vector 909  CAIN.eNodeB.sctp  "RTT 1:10.0.5.2"  ETV
vector 96  CAIN.eNodeB.nic.mac  receivedPacketFromLowerLayer:vector(packetBytes)  ETV
attr interpolationmode  none
attr source  receivedPacketFromLowerLayer
vector 1305  CAIN.eNodeB.sctp  "SendQueue of Association 6"  ETV
vector 1168  CAIN.eNodeB.sctp  "TSN Sent 6:10.0.5.2"  ETV
vector 1175  CAIN.eNodeB.sctp  "Outstanding Bytes 6:10.0.5.2"  ETV
vector 848  CAIN.eNodeB.sctp  "Outstanding Bytes 3:Total"  ETV
vector 1174  CAIN.eNodeB.sctp  "Queued Sent Bytes 6:10.0.5.2"  ETV
vector 847  CAIN.eNodeB.sctp  "Queued Sent Bytes 3:Total"  ETV
vector 963  CAIN.eNodeB1.sctp  "TSN Received 2:10.0.5.1"  ETV
vector 939  CAIN.eNodeB1.sctp  "Queued Received Bytes 2:Total"  ETV
vector 935  CAIN.eNodeB1.sctp  "Advertised Receiver Window 2"  ETV
vector 944  CAIN.eNodeB1.sctp  "Number of Total Gap Blocks Stored 2"  ETV
vector 945  CAIN.eNodeB1.sctp  "Number of Revokable Gap Blocks Stored 2"  ETV
vector 946  CAIN.eNodeB1.sctp  "Number of Non-Revokable Gap Blocks Stored 2"  ETV
vector 947  CAIN.eNodeB1.sctp  "Number of Duplicate TSNs Stored 2"  ETV
vector 951  CAIN.eNodeB1.sctp  "Length of SACK Sent 2"  ETV
vector 948  CAIN.eNodeB1.sctp  "Number of Revokable Gap Blocks Sent 2"  ETV
vector 949  CAIN.eNodeB1.sctp  "Number of Non-Revokable Gap Blocks Sent 2"  ETV
vector 950  CAIN.eNodeB1.sctp  "Number of Duplicate TSNs Sent 2"  ETV
vector 955  CAIN.eNodeB1.sctp  "End to End Delay of Association 2"  ETV
vector 199  CAIN.eNodeB1.x2App[0].client  rcvdPk:vector(packetBytes)  ETV
attr interpolationmode  none
attr source  rcvdPk
attr title  "packets received, vector(packetBytes)"
vector 1304  CAIN.eNodeB.sctp  "Number of Gap Blocks in Last SACK of Association 6"  ETV
vector 849  CAIN.eNodeB.sctp  "Number of Revokable Gap Blocks in SACK 3"  ETV
vector 850  CAIN.eNodeB.sctp  "Number of Non-Revokable Gap Blocks in SACK 3"  ETV
vector 1185  CAIN.eNodeB.sctp  "TSN Acked CumAck 6:10.0.5.2"  ETV
vector 1151  CAIN.eNodeB.sctp  "Number of Gap Acked Chunks in Last SACK 6:10.0.3.2"  ETV
vector 1152  CAIN.eNodeB.sctp  "Number of Non-Revokable Gap Acked Chunks in Last SACK 6:10.0.3.2"  ETV
vector 1153  CAIN.eNodeB.sctp  "Number of Gap Missed Chunks in Last SACK 6:10.0.3.2"  ETV
vector 1124  CAIN.eNodeB.sctp  "Number of Gap Acked Chunks in Last SACK 6:10.0.4.2"  ETV
vector 1125  CAIN.eNodeB.sctp  "Number of Non-Revokable Gap Acked Chunks in Last SACK 6:10.0.4.2"  ETV
vector 1126  CAIN.eNodeB.sctp  "Number of Gap Missed Chunks in Last SACK 6:10.0.4.2"  ETV
vector 1178  CAIN.eNodeB.sctp  "Number of Gap Acked Chunks in Last SACK 6:10.0.5.2"  ETV
vector 1179  CAIN.eNodeB.sctp  "Number of Non-Revokable Gap Acked Chunks in Last SACK 6:10.0.5.2"  ETV
vector 1180  CAIN.eNodeB.sctp  "Number of Gap Missed Chunks in Last SACK 6:10.0.5.2"  ETV
vector 859  CAIN.eNodeB.sctp  "Arwnd in Last SACK 3"  ETV
vector 1187  CAIN.eNodeB.sctp  "TSN PseudoCumAck 6:10.0.5.2"  ETV
vector 1188  CAIN.eNodeB.sctp  "TSN RTXPseudoCumAck 6:10.0.5.2"  ETV
vector 1181  CAIN.eNodeB.sctp  "Partial Bytes Acked 6:10.0.5.2"  ETV
vector 1333  CAIN.ueD2DTx[17].tcp  tcpRcvQueueBytes  ETV
vector 1320  CAIN.ueD2DTx[17].tcp  "advertised window"  ETV
vector 1319  CAIN.ueD2DTx[17].tcp  "receive window"  ETV
vector 1322  CAIN.ueD2DTx[17].tcp  "sent ack"  ETV
vector 749  CAIN.ueD2DTx[17].nic.pdcpRrc  receivedPacketFromUpperLayer:vector(packetBytes)  ETV
attr interpolationmode  none
attr source  receivedPacketFromUpperLayer
vector 752  CAIN.ueD2DTx[17].nic.pdcpRrc  sentPacketToLowerLayer:vector(packetBytes)  ETV
attr interpolationmode  none
attr source  sentPacketToLowerLayer
vector 753  CAIN.ueD2DTx[17].nic.mac  receivedPacketFromUpperLayer:vector(packetBytes)  ETV
attr interpolationmode  none
attr source  receivedPacketFromUpperLayer
vector 763  CAIN.ueD2DTx[17].nic.mac  CainHopMessageSent:vector  ETV
attr interpolationmode  none
attr title  "# of Sent CAIN hop message, vector"
vector 756  CAIN.ueD2DTx[17].nic.mac  sentPacketToLowerLayer:vector(packetBytes)  ETV
attr interpolationmode  none
attr source  sentPacketToLowerLayer
vector 498  CAIN.ueD2DTx[9].nic.mac  receivedPacketFromLowerLayer:vector(packetBytes)  ETV
attr interpolationmode  none
attr source  receivedPacketFromLowerLayer
vector 500  CAIN.ueD2DTx[9].nic.mac  sentPacketToLowerLayer:vector(packetBytes)  ETV
attr interpolationmode  none
attr source  sentPacketToLowerLayer
vector 562  CAIN.ueD2DTx[11].nic.mac  receivedPacketFromLowerLayer:vector(packetBytes)  ETV
attr interpolationmode  none
attr source  receivedPacketFromLowerLayer
vector 564  CAIN.ueD2DTx[11].nic.mac  sentPacketToLowerLayer:vector(packetBytes)  ETV
attr interpolationmode  none
attr source  sentPacketToLowerLayer
vector 111  CAIN.eNodeB.nic.mac  racpkt:vector  ETV
attr interpolationmode  none
attr title  "eNB received racpkt message, vector"
vector 112  CAIN.eNodeB.nic.mac  racDistanceSignal:vector  ETV
attr interpolationmode  none
attr title  "Rac distance to enb, vector"
vector 113  CAIN.eNodeB.nic.mac  racServedDevsSignal:vector  ETV
attr interpolationmode  none
attr title  "# of devices served on rac arriavall, vector"
vector 106  CAIN.eNodeB.nic.mac  DistanceSignal:vector  ETV
attr interpolationmode  none
attr title  "Distance to enb, vector"
vector 101  CAIN.eNodeB.nic.mac  CainHopMessage:vector  ETV
attr interpolationmode  none
attr title  "eNB received CAIN hop message, vector"
vector 98  CAIN.eNodeB.nic.mac  sentPacketToLowerLayer:vector(packetBytes)  ETV
attr interpolationmode  none
attr source  sentPacketToLowerLayer
vector 569  CAIN.ueD2DTx[11].nic.mac  DropedHopMessage:vector  ETV
attr interpolationmode  none
attr title  "Droped Hop CAIN message due to RB not available, vector"
vector 1357  CAIN.ueD2DTx[8].tcp  tcpRcvQueueBytes  ETV
vector 1344  CAIN.ueD2DTx[8].tcp  "advertised window"  ETV
vector 1343  CAIN.ueD2DTx[8].tcp  "receive window"  ETV
vector 1346  CAIN.ueD2DTx[8].tcp  "sent ack"  ETV
vector 461  CAIN.ueD2DTx[8].nic.pdcpRrc  receivedPacketFromUpperLayer:vector(packetBytes)  ETV
attr interpolationmode  none
attr source  receivedPacketFromUpperLayer
vector 464  CAIN.ueD2DTx[8].nic.pdcpRrc  sentPacketToLowerLayer:vector(packetBytes)  ETV
attr interpolationmode  none
attr source  sentPacketToLowerLayer
vector 465  CAIN.ueD2DTx[8].nic.mac  receivedPacketFromUpperLayer:vector(packetBytes)  ETV
attr interpolationmode  none
attr source  receivedPacketFromUpperLayer
vector 474  CAIN.ueD2DTx[8].nic.mac  CainMessageSent:vector  ETV
attr interpolationmode  none
attr title  "# of Sent CAIN message, vector"
vector 468  CAIN.ueD2DTx[8].nic.mac  sentPacketToLowerLayer:vector(packetBytes)  ETV
attr interpolationmode  none
attr source  sentPacketToLowerLayer
vector 274  CAIN.ueD2DTx[2].nic.mac  receivedPacketFromLowerLayer:vector(packetBytes)  ETV
attr interpolationmode  none
attr source  receivedPacketFromLowerLayer
vector 276  CAIN.ueD2DTx[2].nic.mac  sentPacketToLowerLayer:vector(packetBytes)  ETV
attr interpolationmode  none
attr source  sentPacketToLowerLayer
vector 100  CAIN.eNodeB.nic.mac  CainMessage:vector  ETV
attr interpolationmode  none
attr title  "eNB received CAIN message, vector"
vector 1381  CAIN.ueD2DTx[9].tcp  tcpRcvQueueBytes  ETV
vector 1368  CAIN.ueD2DTx[9].tcp  "advertised window"  ETV
vector 1367  CAIN.ueD2DTx[9].tcp  "receive window"  ETV
vector 1370  CAIN.ueD2DTx[9].tcp  "sent ack"  ETV
vector 493  CAIN.ueD2DTx[9].nic.pdcpRrc  receivedPacketFromUpperLayer:vector(packetBytes)  ETV
attr interpolationmode  none
attr source  receivedPacketFromUpperLayer
vector 496  CAIN.ueD2DTx[9].nic.pdcpRrc  sentPacketToLowerLayer:vector(packetBytes)  ETV
attr interpolationmode  none
attr source  sentPacketToLowerLayer
vector 497  CAIN.ueD2DTx[9].nic.mac  receivedPacketFromUpperLayer:vector(packetBytes)  ETV
attr interpolationmode  none
attr source  receivedPacketFromUpperLayer
vector 506  CAIN.ueD2DTx[9].nic.mac  CainMessageSent:vector  ETV
attr interpolationmode  none
attr title  "# of Sent CAIN message, vector"
vector 280  CAIN.ueD2DTx[2].nic.mac  DropedCainMessage:vector  ETV
attr interpolationmode  none
attr title  "Droped CAIN message due to RB not available, vector"
vector 568  CAIN.ueD2DTx[11].nic.mac  DropedCainMessage:vector  ETV
attr interpolationmode  none
attr title  "Droped CAIN message due to RB not available, vector"
vector 1405  CAIN.ueD2DTx[7].tcp  tcpRcvQueueBytes  ETV
vector 1392  CAIN.ueD2DTx[7].tcp  "advertised window"  ETV
vector 1391  CAIN.ueD2DTx[7].tcp  "receive window"  ETV
vector 1394  CAIN.ueD2DTx[7].tcp  "sent ack"  ETV
vector 429  CAIN.ueD2DTx[7].nic.pdcpRrc  receivedPacketFromUpperLayer:vector(packetBytes)  ETV
attr interpolationmode  none
attr source  receivedPacketFromUpperLayer
vector 432  CAIN.ueD2DTx[7].nic.pdcpRrc  sentPacketToLowerLayer:vector(packetBytes)  ETV
attr interpolationmode  none
attr source  sentPacketToLowerLayer
vector 433  CAIN.ueD2DTx[7].nic.mac  receivedPacketFromUpperLayer:vector(packetBytes)  ETV
attr interpolationmode  none
attr source  receivedPacketFromUpperLayer
vector 436  CAIN.ueD2DTx[7].nic.mac  sentPacketToLowerLayer:vector(packetBytes)  ETV
attr interpolationmode  none
attr source  sentPacketToLowerLayer
vector 1429  CAIN.ueD2DTx[5].tcp  tcpRcvQueueBytes  ETV
vector 1416  CAIN.ueD2DTx[5].tcp  "advertised window"  ETV
vector 1415  CAIN.ueD2DTx[5].tcp  "receive window"  ETV
vector 1418  CAIN.ueD2DTx[5].tcp  "sent ack"  ETV
vector 365  CAIN.ueD2DTx[5].nic.pdcpRrc  receivedPacketFromUpperLayer:vector(packetBytes)  ETV
attr interpolationmode  none
attr source  receivedPacketFromUpperLayer
vector 368  CAIN.ueD2DTx[5].nic.pdcpRrc  sentPacketToLowerLayer:vector(packetBytes)  ETV
attr interpolationmode  none
attr source  sentPacketToLowerLayer
vector 369  CAIN.ueD2DTx[5].nic.mac  receivedPacketFromUpperLayer:vector(packetBytes)  ETV
attr interpolationmode  none
attr source  receivedPacketFromUpperLayer
vector 379  CAIN.ueD2DTx[5].nic.mac  CainHopMessageSent:vector  ETV
attr interpolationmode  none
attr title  "# of Sent CAIN hop message, vector"
vector 372  CAIN.ueD2DTx[5].nic.mac  sentPacketToLowerLayer:vector(packetBytes)  ETV
attr interpolationmode  none
attr source  sentPacketToLowerLayer
vector 434  CAIN.ueD2DTx[7].nic.mac  receivedPacketFromLowerLayer:vector(packetBytes)  ETV
attr interpolationmode  none
attr source  receivedPacketFromLowerLayer
vector 1453  CAIN.ueD2DTx[10].tcp  tcpRcvQueueBytes  ETV
vector 1440  CAIN.ueD2DTx[10].tcp  "advertised window"  ETV
vector 1439  CAIN.ueD2DTx[10].tcp  "receive window"  ETV
vector 1442  CAIN.ueD2DTx[10].tcp  "sent ack"  ETV
vector 525  CAIN.ueD2DTx[10].nic.pdcpRrc  receivedPacketFromUpperLayer:vector(packetBytes)  ETV
attr interpolationmode  none
attr source  receivedPacketFromUpperLayer
vector 528  CAIN.ueD2DTx[10].nic.pdcpRrc  sentPacketToLowerLayer:vector(packetBytes)  ETV
attr interpolationmode  none
attr source  sentPacketToLowerLayer
vector 529  CAIN.ueD2DTx[10].nic.mac  receivedPacketFromUpperLayer:vector(packetBytes)  ETV
attr interpolationmode  none
attr source  receivedPacketFromUpperLayer
vector 1477  CAIN.ueD2DTx[13].tcp  tcpRcvQueueBytes  ETV
vector 1464  CAIN.ueD2DTx[13].tcp  "advertised window"  ETV
vector 1463  CAIN.ueD2DTx[13].tcp  "receive window"  ETV
vector 1466  CAIN.ueD2DTx[13].tcp  "sent ack"  ETV
vector 621  CAIN.ueD2DTx[13].nic.pdcpRrc  receivedPacketFromUpperLayer:vector(packetBytes)  ETV
attr interpolationmode  none
attr source  receivedPacketFromUpperLayer
vector 624  CAIN.ueD2DTx[13].nic.pdcpRrc  sentPacketToLowerLayer:vector(packetBytes)  ETV
attr interpolationmode  none
attr source  sentPacketToLowerLayer
vector 625  CAIN.ueD2DTx[13].nic.mac  receivedPacketFromUpperLayer:vector(packetBytes)  ETV
attr interpolationmode  none
attr source  receivedPacketFromUpperLayer
vector 538  CAIN.ueD2DTx[10].nic.mac  CainMessageSent:vector  ETV
attr interpolationmode  none
attr title  "# of Sent CAIN message, vector"
vector 532  CAIN.ueD2DTx[10].nic.mac  sentPacketToLowerLayer:vector(packetBytes)  ETV
attr interpolationmode  none
attr source  sentPacketToLowerLayer
vector 635  CAIN.ueD2DTx[13].nic.mac  CainHopMessageSent:vector  ETV
attr interpolationmode  none
attr title  "# of Sent CAIN hop message, vector"
vector 628  CAIN.ueD2DTx[13].nic.mac  sentPacketToLowerLayer:vector(packetBytes)  ETV
attr interpolationmode  none
attr source  sentPacketToLowerLayer
vector 530  CAIN.ueD2DTx[10].nic.mac  receivedPacketFromLowerLayer:vector(packetBytes)  ETV
attr interpolationmode  none
attr source  receivedPacketFromLowerLayer
vector 1501  CAIN.ueD2DTx[0].tcp  tcpRcvQueueBytes  ETV
vector 1488  CAIN.ueD2DTx[0].tcp  "advertised window"  ETV
vector 1487  CAIN.ueD2DTx[0].tcp  "receive window"  ETV
vector 1490  CAIN.ueD2DTx[0].tcp  "sent ack"  ETV
vector 205  CAIN.ueD2DTx[0].nic.pdcpRrc  receivedPacketFromUpperLayer:vector(packetBytes)  ETV
attr interpolationmode  none
attr source  receivedPacketFromUpperLayer
vector 208  CAIN.ueD2DTx[0].nic.pdcpRrc  sentPacketToLowerLayer:vector(packetBytes)  ETV
attr interpolationmode  none
attr source  sentPacketToLowerLayer
vector 209  CAIN.ueD2DTx[0].nic.mac  receivedPacketFromUpperLayer:vector(packetBytes)  ETV
attr interpolationmode  none
attr source  receivedPacketFromUpperLayer
vector 219  CAIN.ueD2DTx[0].nic.mac  CainHopMessageSent:vector  ETV
attr interpolationmode  none
attr title  "# of Sent CAIN hop message, vector"
vector 212  CAIN.ueD2DTx[0].nic.mac  sentPacketToLowerLayer:vector(packetBytes)  ETV
attr interpolationmode  none
attr source  sentPacketToLowerLayer
vector 435  CAIN.ueD2DTx[7].nic.mac  sentPacketToUpperLayer:vector(packetBytes)  ETV
attr interpolationmode  none
attr source  sentPacketToUpperLayer
vector 786  CAIN.ueD2DTx[18].nic.mac  receivedPacketFromLowerLayer:vector(packetBytes)  ETV
attr interpolationmode  none
attr source  receivedPacketFromLowerLayer
vector 788  CAIN.ueD2DTx[18].nic.mac  sentPacketToLowerLayer:vector(packetBytes)  ETV
attr interpolationmode  none
attr source  sentPacketToLowerLayer
vector 792  CAIN.ueD2DTx[18].nic.mac  DropedCainMessage:vector  ETV
attr interpolationmode  none
attr title  "Droped CAIN message due to RB not available, vector"
vector 793  CAIN.ueD2DTx[18].nic.mac  DropedHopMessage:vector  ETV
attr interpolationmode  none
attr title  "Droped Hop CAIN message due to RB not available, vector"
vector 1525  CAIN.ueD2DTx[16].tcp  tcpRcvQueueBytes  ETV
vector 1512  CAIN.ueD2DTx[16].tcp  "advertised window"  ETV
vector 1511  CAIN.ueD2DTx[16].tcp  "receive window"  ETV
vector 1514  CAIN.ueD2DTx[16].tcp  "sent ack"  ETV
vector 717  CAIN.ueD2DTx[16].nic.pdcpRrc  receivedPacketFromUpperLayer:vector(packetBytes)  ETV
attr interpolationmode  none
attr source  receivedPacketFromUpperLayer
vector 720  CAIN.ueD2DTx[16].nic.pdcpRrc  sentPacketToLowerLayer:vector(packetBytes)  ETV
attr interpolationmode  none
attr source  sentPacketToLowerLayer
vector 721  CAIN.ueD2DTx[16].nic.mac  receivedPacketFromUpperLayer:vector(packetBytes)  ETV
attr interpolationmode  none
attr source  receivedPacketFromUpperLayer
vector 730  CAIN.ueD2DTx[16].nic.mac  CainMessageSent:vector  ETV
attr interpolationmode  none
attr title  "# of Sent CAIN message, vector"
vector 724  CAIN.ueD2DTx[16].nic.mac  sentPacketToLowerLayer:vector(packetBytes)  ETV
attr interpolationmode  none
attr source  sentPacketToLowerLayer
vector 1301  CAIN.eNodeB1.sctp  "SendQueue of Association 5"  ETV
vector 1065  CAIN.eNodeB1.sctp  "TSN Sent 5:10.0.5.1"  ETV
vector 1072  CAIN.eNodeB1.sctp  "Outstanding Bytes 5:10.0.5.1"  ETV
vector 870  CAIN.eNodeB1.sctp  "Outstanding Bytes 4:Total"  ETV
vector 1071  CAIN.eNodeB1.sctp  "Queued Sent Bytes 5:10.0.5.1"  ETV
vector 869  CAIN.eNodeB1.sctp  "Queued Sent Bytes 4:Total"  ETV
vector 914  CAIN.eNodeB.sctp  "TSN Received 1:10.0.5.2"  ETV
vector 890  CAIN.eNodeB.sctp  "Queued Received Bytes 1:Total"  ETV
vector 886  CAIN.eNodeB.sctp  "Advertised Receiver Window 1"  ETV
vector 895  CAIN.eNodeB.sctp  "Number of Total Gap Blocks Stored 1"  ETV
vector 896  CAIN.eNodeB.sctp  "Number of Revokable Gap Blocks Stored 1"  ETV
vector 897  CAIN.eNodeB.sctp  "Number of Non-Revokable Gap Blocks Stored 1"  ETV
vector 898  CAIN.eNodeB.sctp  "Number of Duplicate TSNs Stored 1"  ETV
vector 902  CAIN.eNodeB.sctp  "Length of SACK Sent 1"  ETV
vector 899  CAIN.eNodeB.sctp  "Number of Revokable Gap Blocks Sent 1"  ETV
vector 900  CAIN.eNodeB.sctp  "Number of Non-Revokable Gap Blocks Sent 1"  ETV
vector 901  CAIN.eNodeB.sctp  "Number of Duplicate TSNs Sent 1"  ETV
vector 906  CAIN.eNodeB.sctp  "End to End Delay of Association 1"  ETV
vector 141  CAIN.eNodeB.x2App[0].client  rcvdPk:vector(packetBytes)  ETV
attr interpolationmode  none
attr source  rcvdPk
attr title  "packets received, vector(packetBytes)"
vector 1300  CAIN.eNodeB1.sctp  "Number of Gap Blocks in Last SACK of Association 5"  ETV
vector 871  CAIN.eNodeB1.sctp  "Number of Revokable Gap Blocks in SACK 4"  ETV
vector 872  CAIN.eNodeB1.sctp  "Number of Non-Revokable Gap Blocks in SACK 4"  ETV
vector 1082  CAIN.eNodeB1.sctp  "TSN Acked CumAck 5:10.0.5.1"  ETV
vector 1048  CAIN.eNodeB1.sctp  "Number of Gap Acked Chunks in Last SACK 5:10.0.2.2"  ETV
vector 1049  CAIN.eNodeB1.sctp  "Number of Non-Revokable Gap Acked Chunks in Last SACK 5:10.0.2.2"  ETV
vector 1050  CAIN.eNodeB1.sctp  "Number of Gap Missed Chunks in Last SACK 5:10.0.2.2"  ETV
vector 1021  CAIN.eNodeB1.sctp  "Number of Gap Acked Chunks in Last SACK 5:10.0.4.1"  ETV
vector 1022  CAIN.eNodeB1.sctp  "Number of Non-Revokable Gap Acked Chunks in Last SACK 5:10.0.4.1"  ETV
vector 1023  CAIN.eNodeB1.sctp  "Number of Gap Missed Chunks in Last SACK 5:10.0.4.1"  ETV
vector 1075  CAIN.eNodeB1.sctp  "Number of Gap Acked Chunks in Last SACK 5:10.0.5.1"  ETV
vector 1076  CAIN.eNodeB1.sctp  "Number of Non-Revokable Gap Acked Chunks in Last SACK 5:10.0.5.1"  ETV
vector 1077  CAIN.eNodeB1.sctp  "Number of Gap Missed Chunks in Last SACK 5:10.0.5.1"  ETV
vector 881  CAIN.eNodeB1.sctp  "Arwnd in Last SACK 4"  ETV
vector 1084  CAIN.eNodeB1.sctp  "TSN PseudoCumAck 5:10.0.5.1"  ETV
vector 1085  CAIN.eNodeB1.sctp  "TSN RTXPseudoCumAck 5:10.0.5.1"  ETV
vector 1078  CAIN.eNodeB1.sctp  "Partial Bytes Acked 5:10.0.5.1"  ETV
vector 1549  CAIN.ueD2DTx[18].tcp  tcpRcvQueueBytes  ETV
vector 1536  CAIN.ueD2DTx[18].tcp  "advertised window"  ETV
vector 1535  CAIN.ueD2DTx[18].tcp  "receive window"  ETV
vector 1538  CAIN.ueD2DTx[18].tcp  "sent ack"  ETV
vector 781  CAIN.ueD2DTx[18].nic.pdcpRrc  receivedPacketFromUpperLayer:vector(packetBytes)  ETV
attr interpolationmode  none
attr source  receivedPacketFromUpperLayer
vector 784  CAIN.ueD2DTx[18].nic.pdcpRrc  sentPacketToLowerLayer:vector(packetBytes)  ETV
attr interpolationmode  none
attr source  sentPacketToLowerLayer
vector 785  CAIN.ueD2DTx[18].nic.mac  receivedPacketFromUpperLayer:vector(packetBytes)  ETV
attr interpolationmode  none
attr source  receivedPacketFromUpperLayer
vector 1573  CAIN.ueD2DTx[14].tcp  tcpRcvQueueBytes  ETV
vector 1560  CAIN.ueD2DTx[14].tcp  "advertised window"  ETV
vector 1559  CAIN.ueD2DTx[14].tcp  "receive window"  ETV
vector 1562  CAIN.ueD2DTx[14].tcp  "sent ack"  ETV
vector 653  CAIN.ueD2DTx[14].nic.pdcpRrc  receivedPacketFromUpperLayer:vector(packetBytes)  ETV
attr interpolationmode  none
attr source  receivedPacketFromUpperLayer
vector 656  CAIN.ueD2DTx[14].nic.pdcpRrc  sentPacketToLowerLayer:vector(packetBytes)  ETV
attr interpolationmode  none
attr source  sentPacketToLowerLayer
vector 657  CAIN.ueD2DTx[14].nic.mac  receivedPacketFromUpperLayer:vector(packetBytes)  ETV
attr interpolationmode  none
attr source  receivedPacketFromUpperLayer
vector 667  CAIN.ueD2DTx[14].nic.mac  CainHopMessageSent:vector  ETV
attr interpolationmode  none
attr title  "# of Sent CAIN hop message, vector"
vector 660  CAIN.ueD2DTx[14].nic.mac  sentPacketToLowerLayer:vector(packetBytes)  ETV
attr interpolationmode  none
attr source  sentPacketToLowerLayer
vector 154  CAIN.eNodeB1.nic.mac  receivedPacketFromLowerLayer:vector(packetBytes)  ETV
attr interpolationmode  none
attr source  receivedPacketFromLowerLayer
vector 1597  CAIN.ueD2DTx[11].tcp  tcpRcvQueueBytes  ETV
vector 1584  CAIN.ueD2DTx[11].tcp  "advertised window"  ETV
vector 1583  CAIN.ueD2DTx[11].tcp  "receive window"  ETV
vector 1586  CAIN.ueD2DTx[11].tcp  "sent ack"  ETV
vector 557  CAIN.ueD2DTx[11].nic.pdcpRrc  receivedPacketFromUpperLayer:vector(packetBytes)  ETV
attr interpolationmode  none
attr source  receivedPacketFromUpperLayer
vector 560  CAIN.ueD2DTx[11].nic.pdcpRrc  sentPacketToLowerLayer:vector(packetBytes)  ETV
attr interpolationmode  none
attr source  sentPacketToLowerLayer
vector 561  CAIN.ueD2DTx[11].nic.mac  receivedPacketFromUpperLayer:vector(packetBytes)  ETV
attr interpolationmode  none
attr source  receivedPacketFromUpperLayer
vector 1621  CAIN.ueD2DTx[4].tcp  tcpRcvQueueBytes  ETV
vector 1608  CAIN.ueD2DTx[4].tcp  "advertised window"  ETV
vector 1607  CAIN.ueD2DTx[4].tcp  "receive window"  ETV
vector 1610  CAIN.ueD2DTx[4].tcp  "sent ack"  ETV
vector 333  CAIN.ueD2DTx[4].nic.pdcpRrc  receivedPacketFromUpperLayer:vector(packetBytes)  ETV
attr interpolationmode  none
attr source  receivedPacketFromUpperLayer
vector 336  CAIN.ueD2DTx[4].nic.pdcpRrc  sentPacketToLowerLayer:vector(packetBytes)  ETV
attr interpolationmode  none
attr source  sentPacketToLowerLayer
vector 337  CAIN.ueD2DTx[4].nic.mac  receivedPacketFromUpperLayer:vector(packetBytes)  ETV
attr interpolationmode  none
attr source  receivedPacketFromUpperLayer
vector 347  CAIN.ueD2DTx[4].nic.mac  CainHopMessageSent:vector  ETV
attr interpolationmode  none
attr title  "# of Sent CAIN hop message, vector"
vector 340  CAIN.ueD2DTx[4].nic.mac  sentPacketToLowerLayer:vector(packetBytes)  ETV
attr interpolationmode  none
attr source  sentPacketToLowerLayer
vector 658  CAIN.ueD2DTx[14].nic.mac  receivedPacketFromLowerLayer:vector(packetBytes)  ETV
attr interpolationmode  none
attr source  receivedPacketFromLowerLayer
vector 1645  CAIN.ueD2DTx[12].tcp  tcpRcvQueueBytes  ETV
vector 1632  CAIN.ueD2DTx[12].tcp  "advertised window"  ETV
vector 1631  CAIN.ueD2DTx[12].tcp  "receive window"  ETV
vector 1634  CAIN.ueD2DTx[12].tcp  "sent ack"  ETV
vector 589  CAIN.ueD2DTx[12].nic.pdcpRrc  receivedPacketFromUpperLayer:vector(packetBytes)  ETV
attr interpolationmode  none
attr source  receivedPacketFromUpperLayer
vector 592  CAIN.ueD2DTx[12].nic.pdcpRrc  sentPacketToLowerLayer:vector(packetBytes)  ETV
attr interpolationmode  none
attr source  sentPacketToLowerLayer
vector 593  CAIN.ueD2DTx[12].nic.mac  receivedPacketFromUpperLayer:vector(packetBytes)  ETV
attr interpolationmode  none
attr source  receivedPacketFromUpperLayer
vector 596  CAIN.ueD2DTx[12].nic.mac  sentPacketToLowerLayer:vector(packetBytes)  ETV
attr interpolationmode  none
attr source  sentPacketToLowerLayer
vector 1669  CAIN.ueD2DTx[6].tcp  tcpRcvQueueBytes  ETV
vector 1656  CAIN.ueD2DTx[6].tcp  "advertised window"  ETV
vector 1655  CAIN.ueD2DTx[6].tcp  "receive window"  ETV
vector 1658  CAIN.ueD2DTx[6].tcp  "sent ack"  ETV
vector 397  CAIN.ueD2DTx[6].nic.pdcpRrc  receivedPacketFromUpperLayer:vector(packetBytes)  ETV
attr interpolationmode  none
attr source  receivedPacketFromUpperLayer
vector 400  CAIN.ueD2DTx[6].nic.pdcpRrc  sentPacketToLowerLayer:vector(packetBytes)  ETV
attr interpolationmode  none
attr source  sentPacketToLowerLayer
vector 401  CAIN.ueD2DTx[6].nic.mac  receivedPacketFromUpperLayer:vector(packetBytes)  ETV
attr interpolationmode  none
attr source  receivedPacketFromUpperLayer
vector 404  CAIN.ueD2DTx[6].nic.mac  sentPacketToLowerLayer:vector(packetBytes)  ETV
attr interpolationmode  none
attr source  sentPacketToLowerLayer
vector 169  CAIN.eNodeB1.nic.mac  racpkt:vector  ETV
attr interpolationmode  none
attr title  "eNB received racpkt message, vector"
vector 170  CAIN.eNodeB1.nic.mac  racDistanceSignal:vector  ETV
attr interpolationmode  none
attr title  "Rac distance to enb, vector"
vector 171  CAIN.eNodeB1.nic.mac  racServedDevsSignal:vector  ETV
attr interpolationmode  none
attr title  "# of devices served on rac arriavall, vector"
vector 156  CAIN.eNodeB1.nic.mac  sentPacketToLowerLayer:vector(packetBytes)  ETV
attr interpolationmode  none
attr source  sentPacketToLowerLayer
vector 594  CAIN.ueD2DTx[12].nic.mac  receivedPacketFromLowerLayer:vector(packetBytes)  ETV
attr interpolationmode  none
attr source  receivedPacketFromLowerLayer
vector 402  CAIN.ueD2DTx[6].nic.mac  receivedPacketFromLowerLayer:vector(packetBytes)  ETV
attr interpolationmode  none
attr source  receivedPacketFromLowerLayer
vector 1693  CAIN.ueD2DTx[1].tcp  tcpRcvQueueBytes  ETV
vector 1680  CAIN.ueD2DTx[1].tcp  "advertised window"  ETV
vector 1679  CAIN.ueD2DTx[1].tcp  "receive window"  ETV
vector 1682  CAIN.ueD2DTx[1].tcp  "sent ack"  ETV
vector 237  CAIN.ueD2DTx[1].nic.pdcpRrc  receivedPacketFromUpperLayer:vector(packetBytes)  ETV
attr interpolationmode  none
attr source  receivedPacketFromUpperLayer
vector 240  CAIN.ueD2DTx[1].nic.pdcpRrc  sentPacketToLowerLayer:vector(packetBytes)  ETV
attr interpolationmode  none
attr source  sentPacketToLowerLayer
vector 241  CAIN.ueD2DTx[1].nic.mac  receivedPacketFromUpperLayer:vector(packetBytes)  ETV
attr interpolationmode  none
attr source  receivedPacketFromUpperLayer
vector 251  CAIN.ueD2DTx[1].nic.mac  CainHopMessageSent:vector  ETV
attr interpolationmode  none
attr title  "# of Sent CAIN hop message, vector"
vector 244  CAIN.ueD2DTx[1].nic.mac  sentPacketToLowerLayer:vector(packetBytes)  ETV
attr interpolationmode  none
attr source  sentPacketToLowerLayer
vector 466  CAIN.ueD2DTx[8].nic.mac  receivedPacketFromLowerLayer:vector(packetBytes)  ETV
attr interpolationmode  none
attr source  receivedPacketFromLowerLayer
vector 1717  CAIN.ueD2DTx[15].tcp  tcpRcvQueueBytes  ETV
vector 1704  CAIN.ueD2DTx[15].tcp  "advertised window"  ETV
vector 1703  CAIN.ueD2DTx[15].tcp  "receive window"  ETV
vector 1706  CAIN.ueD2DTx[15].tcp  "sent ack"  ETV
vector 685  CAIN.ueD2DTx[15].nic.pdcpRrc  receivedPacketFromUpperLayer:vector(packetBytes)  ETV
attr interpolationmode  none
attr source  receivedPacketFromUpperLayer
vector 688  CAIN.ueD2DTx[15].nic.pdcpRrc  sentPacketToLowerLayer:vector(packetBytes)  ETV
attr interpolationmode  none
attr source  sentPacketToLowerLayer
vector 689  CAIN.ueD2DTx[15].nic.mac  receivedPacketFromUpperLayer:vector(packetBytes)  ETV
attr interpolationmode  none
attr source  receivedPacketFromUpperLayer
vector 692  CAIN.ueD2DTx[15].nic.mac  sentPacketToLowerLayer:vector(packetBytes)  ETV
attr interpolationmode  none
attr source  sentPacketToLowerLayer
vector 690  CAIN.ueD2DTx[15].nic.mac  receivedPacketFromLowerLayer:vector(packetBytes)  ETV
attr interpolationmode  none
attr source  receivedPacketFromLowerLayer
vector 697  CAIN.ueD2DTx[15].nic.mac  DropedHopMessage:vector  ETV
attr interpolationmode  none
attr title  "Droped Hop CAIN message due to RB not available, vector"
vector 1741  CAIN.ueD2DTx[2].tcp  tcpRcvQueueBytes  ETV
vector 1728  CAIN.ueD2DTx[2].tcp  "advertised window"  ETV
vector 1727  CAIN.ueD2DTx[2].tcp  "receive window"  ETV
vector 1730  CAIN.ueD2DTx[2].tcp  "sent ack"  ETV
vector 269  CAIN.ueD2DTx[2].nic.pdcpRrc  receivedPacketFromUpperLayer:vector(packetBytes)  ETV
attr interpolationmode  none
attr source  receivedPacketFromUpperLayer
vector 272  CAIN.ueD2DTx[2].nic.pdcpRrc  sentPacketToLowerLayer:vector(packetBytes)  ETV
attr interpolationmode  none
attr source  sentPacketToLowerLayer
vector 273  CAIN.ueD2DTx[2].nic.mac  receivedPacketFromUpperLayer:vector(packetBytes)  ETV
attr interpolationmode  none
attr source  receivedPacketFromUpperLayer
vector 1765  CAIN.ueD2DTx[19].tcp  tcpRcvQueueBytes  ETV
vector 1752  CAIN.ueD2DTx[19].tcp  "advertised window"  ETV
vector 1751  CAIN.ueD2DTx[19].tcp  "receive window"  ETV
vector 1754  CAIN.ueD2DTx[19].tcp  "sent ack"  ETV
vector 813  CAIN.ueD2DTx[19].nic.pdcpRrc  receivedPacketFromUpperLayer:vector(packetBytes)  ETV
attr interpolationmode  none
attr source  receivedPacketFromUpperLayer
vector 816  CAIN.ueD2DTx[19].nic.pdcpRrc  sentPacketToLowerLayer:vector(packetBytes)  ETV
attr interpolationmode  none
attr source  sentPacketToLowerLayer
vector 817  CAIN.ueD2DTx[19].nic.mac  receivedPacketFromUpperLayer:vector(packetBytes)  ETV
attr interpolationmode  none
attr source  receivedPacketFromUpperLayer
vector 691  CAIN.ueD2DTx[15].nic.mac  sentPacketToUpperLayer:vector(packetBytes)  ETV
attr interpolationmode  none
attr source  sentPacketToUpperLayer
vector 820  CAIN.ueD2DTx[19].nic.mac  sentPacketToLowerLayer:vector(packetBytes)  ETV
attr interpolationmode  none
attr source  sentPacketToLowerLayer
vector 818  CAIN.ueD2DTx[19].nic.mac  receivedPacketFromLowerLayer:vector(packetBytes)  ETV
attr interpolationmode  none
attr source  receivedPacketFromLowerLayer
vector 275  CAIN.ueD2DTx[2].nic.mac  sentPacketToUpperLayer:vector(packetBytes)  ETV
attr interpolationmode  none
attr source  sentPacketToUpperLayer
vector 109  CAIN.eNodeB.nic.mac  ServedHopDevs:vector  ETV
attr interpolationmode  none
attr title  "# of devices served on hop forwarding, vector"
vector 1789  CAIN.ueD2DTx[3].tcp  tcpRcvQueueBytes  ETV
vector 1776  CAIN.ueD2DTx[3].tcp  "advertised window"  ETV
vector 1775  CAIN.ueD2DTx[3].tcp  "receive window"  ETV
vector 1778  CAIN.ueD2DTx[3].tcp  "sent ack"  ETV
vector 301  CAIN.ueD2DTx[3].nic.pdcpRrc  receivedPacketFromUpperLayer:vector(packetBytes)  ETV
attr interpolationmode  none
attr source  receivedPacketFromUpperLayer
vector 304  CAIN.ueD2DTx[3].nic.pdcpRrc  sentPacketToLowerLayer:vector(packetBytes)  ETV
attr interpolationmode  none
attr source  sentPacketToLowerLayer
vector 305  CAIN.ueD2DTx[3].nic.mac  receivedPacketFromUpperLayer:vector(packetBytes)  ETV
attr interpolationmode  none
attr source  receivedPacketFromUpperLayer
vector 115  CAIN.eNodeB.nic.phy  averageCqiUlvect:vector  ETV
attr source  averageCqiUlvect
attr title  "Average Cqi reported in UL, vector"
attr unit  cqi
vector 108  CAIN.eNodeB.nic.mac  ServedDevs:vector  ETV
attr interpolationmode  none
attr title  "# of devices served on cain forwarding, vector"
vector 826  CAIN.ueD2DTx[19].nic.mac  CainMessageSent:vector  ETV
attr interpolationmode  none
attr title  "# of Sent CAIN message, vector"
vector 787  CAIN.ueD2DTx[18].nic.mac  sentPacketToUpperLayer:vector(packetBytes)  ETV
attr interpolationmode  none
attr source  sentPacketToUpperLayer
vector 754  CAIN.ueD2DTx[17].nic.mac  receivedPacketFromLowerLayer:vector(packetBytes)  ETV
attr interpolationmode  none
attr source  receivedPacketFromLowerLayer
vector 755  CAIN.ueD2DTx[17].nic.mac  sentPacketToUpperLayer:vector(packetBytes)  ETV
attr interpolationmode  none
attr source  sentPacketToUpperLayer
vector 499  CAIN.ueD2DTx[9].nic.mac  sentPacketToUpperLayer:vector(packetBytes)  ETV
attr interpolationmode  none
attr source  sentPacketToUpperLayer
vector 626  CAIN.ueD2DTx[13].nic.mac  receivedPacketFromLowerLayer:vector(packetBytes)  ETV
attr interpolationmode  none
attr source  receivedPacketFromLowerLayer
vector 210  CAIN.ueD2DTx[0].nic.mac  receivedPacketFromLowerLayer:vector(packetBytes)  ETV
attr interpolationmode  none
attr source  receivedPacketFromLowerLayer
vector 627  CAIN.ueD2DTx[13].nic.mac  sentPacketToUpperLayer:vector(packetBytes)  ETV
attr interpolationmode  none
attr source  sentPacketToUpperLayer
vector 173  CAIN.eNodeB1.nic.phy  averageCqiUlvect:vector  ETV
attr source  averageCqiUlvect
attr title  "Average Cqi reported in UL, vector"
attr unit  cqi
vector 659  CAIN.ueD2DTx[14].nic.mac  sentPacketToUpperLayer:vector(packetBytes)  ETV
attr interpolationmode  none
attr source  sentPacketToUpperLayer
vector 563  CAIN.ueD2DTx[11].nic.mac  sentPacketToUpperLayer:vector(packetBytes)  ETV
attr interpolationmode  none
attr source  sentPacketToUpperLayer
vector 595  CAIN.ueD2DTx[12].nic.mac  sentPacketToUpperLayer:vector(packetBytes)  ETV
attr interpolationmode  none
attr source  sentPacketToUpperLayer
vector 403  CAIN.ueD2DTx[6].nic.mac  sentPacketToUpperLayer:vector(packetBytes)  ETV
attr interpolationmode  none
attr source  sentPacketToUpperLayer
vector 314  CAIN.ueD2DTx[3].nic.mac  CainMessageSent:vector  ETV
attr interpolationmode  none
attr title  "# of Sent CAIN message, vector"
vector 308  CAIN.ueD2DTx[3].nic.mac  sentPacketToLowerLayer:vector(packetBytes)  ETV
attr interpolationmode  none
attr source  sentPacketToLowerLayer
vector 666  CAIN.ueD2DTx[14].nic.mac  CainMessageSent:vector  ETV
attr interpolationmode  none
attr title  "# of Sent CAIN message, vector"
vector 634  CAIN.ueD2DTx[13].nic.mac  CainMessageSent:vector  ETV
attr interpolationmode  none
attr title  "# of Sent CAIN message, vector"
vector 242  CAIN.ueD2DTx[1].nic.mac  receivedPacketFromLowerLayer:vector(packetBytes)  ETV
attr interpolationmode  none
attr source  receivedPacketFromLowerLayer
vector 243  CAIN.ueD2DTx[1].nic.mac  sentPacketToUpperLayer:vector(packetBytes)  ETV
attr interpolationmode  none
attr source  sentPacketToUpperLayer
1108	51417 24 150 150 0.0000001228 0.0000001228 1 0 0 0 0
1219	51441 28 235 235 0.0000006304 0.0000006304 1 65535 65535 65535 4294836225
1220	51469 27 235 235 0.0000006304 0.0000006304 1 8940 8940 8940 79923600
1221	51496 29 235 235 0.0000006304 0.0000006304 1 0.3725 0.3725 0.3725 0.13875625
1217	51525 24 235 235 0.0000006304 0.0000006304 1 3 3 3 9
1224	51549 24 235 235 0.0000006304 0.0000006304 1 1 1 1 1
1236	51573 24 163 163 0.0000003096 0.0000003096 1 0 0 0 0
1192	51597 28 235 235 0.0000006304 0.0000006304 1 65535 65535 65535 4294836225
1193	51625 27 235 235 0.0000006304 0.0000006304 1 8940 8940 8940 79923600
1194	51652 29 235 235 0.0000006304 0.0000006304 1 0.3725 0.3725 0.3725 0.13875625
1190	51681 24 235 235 0.0000006304 0.0000006304 1 3 3 3 9
1197	51705 24 235 235 0.0000006304 0.0000006304 1 1 1 1 1
1209	51729 24 163 163 0.0000003096 0.0000003096 1 0 0 0 0
910	51753 27 235 235 0.0000006304 0.0000006304 1 65535 65535 65535 4294836225
911	51780 26 235 235 0.0000006304 0.0000006304 1 8940 8940 8940 79923600
912	51806 28 235 235 0.0000006304 0.0000006304 1 0.3725 0.3725 0.3725 0.13875625
908	51834 46 235 302 0.0000006304 0.0000008564 2 1 3 4 10
909	51880 30 302 302 0.0000008564 0.0000008564 1 2.26e-07 2.26e-07 2.26e-07 5.1076e-14
914	51910 3012 3406 14901 0.0570000972 0.2570021596 108 2000 2107 221778 455526090
917	54922 44 207 221 0.000000552 0.000000596 2 1 2 3 5
916	54966 44 207 221 0.000000552 0.000000596 2 1 2 3 5
918	55010 46 302 308 0.0000008564 0.0000009004 2 1 2 3 5
927	55056 12 131 131 0 0 1 0 0 0 0
886	55068 86 3406 25989 0.0570000972 0.4570021596 3 65533 65535 196603 12884246539
890	55154 2765 3406 25989 0.0570000972 0.4570021596 111 0 192 218 37356
895	57919 74 3406 25989 0.0570000972 0.4570021596 3 0 0 0 0
896	57993 74 3406 25989 0.0570000972 0.4570021596 3 0 0 0 0
897	58067 74 3406 25989 0.0570000972 0.4570021596 3 0 0 0 0
898	58141 74 3406 25989 0.0570000972 0.4570021596 3 0 0 0 0
899	58215 74 3406 25989 0.0570000972 0.4570021596 3 0 0 0 0
900	58289 74 3406 25989 0.0570000972 0.4570021596 3 0 0 0 0
901	58363 74 3406 25989 0.0570000972 0.4570021596 3 0 0 0 0
902	58437 77 3406 25989 0.0570000972 0.4570021596 3 16 16 48 768
904	58514 27 163 163 0.0000003096 0.0000003096 1 65535 65535 65535 4294836225
906	58541 3647 3409 14998 0.0570000972 0.2570021596 108 9.72e-08 1.6172e-06 0.0001581776 2.5180935872e-10
907	62188 12 131 131 0 0 1 0 0 0 0
1138	62200 27 178 178 0.000000458 0.000000458 1 65535 65535 65535 4294836225
1139	62227 26 178 178 0.000000458 0.000000458 1 8940 8940 8940 79923600
1140	62253 28 178 178 0.000000458 0.000000458 1 0.3725 0.3725 0.3725 0.13875625
1136	62281 23 178 178 0.000000458 0.000000458 1 3 3 3 9
1143	62304 23 178 178 0.000000458 0.000000458 1 1 1 1 1
1151	62327 76 651 23341 0.0070001912 0.4070022536 3 0 0 0 0
1152	62403 76 651 23341 0.0070001912 0.4070022536 3 0 0 0 0
1153	62479 76 651 23341 0.0070001912 0.4070022536 3 0 0 0 0
1155	62555 24 150 150 0.0000001228 0.0000001228 1 0 0 0 0
1111	62579 27 178 178 0.000000458 0.000000458 1 65535 65535 65535 4294836225
1112	62606 26 178 178 0.000000458 0.000000458 1 8940 8940 8940 79923600
1113	62632 28 178 178 0.000000458 0.000000458 1 0.3725 0.3725 0.3725 0.13875625
1109	62660 23 178 178 0.000000458 0.000000458 1 3 3 3 9
1116	62683 23 178 178 0.000000458 0.000000458 1 1 1 1 1
1124	62706 76 651 23341 0.0070001912 0.4070022536 3 0 0 0 0
1125	62782 76 651 23341 0.0070001912 0.4070022536 3 0 0 0 0
1126	62858 76 651 23341 0.0070001912 0.4070022536 3 0 0 0 0
1128	62934 24 150 150 0.0000001228 0.0000001228 1 0 0 0 0
1165	62958 57 178 65725 0.000000458 1.2070005424 2 65535 65535 131070 8589672450
1166	63015 55 178 65725 0.000000458 1.2070005424 2 8940 8940 17880 159847200
1167	63070 58 178 65725 0.000000458 1.2070005424 2 0.3725 23.84 24.2125 568.48435625
1163	63128 123 178 23341 0.000000458 0.4070022536 5 1 3 7 13
1164	63251 138 255 23341 0.0000006744 0.4070022536 4 1.912e-07 0.2000017112 0.40000247 0.080000824963135
1168	63389 3101 597 11784 0.007 0.2070005424 108 2000 2107 221778 455526090
1172	66490 48 273 287 0.0000007624 0.0000008064 2 1 2 3 5
1171	66538 48 273 287 0.0000007624 0.0000008064 2 1 2 3 5
1173	66586 48 255 265 0.0000006744 0.0000007184 2 1 2 3 5
1174	66634 5872 597 23341 0.007 0.4070022536 216 0 192 18676 2362992
1175	72506 5872 597 23341 0.007 0.4070022536 216 0 192 18676 2362992
1178	78378 76 651 23341 0.0070001912 0.4070022536 3 0 0 0 0
1179	78454 76 651 23341 0.0070001912 0.4070022536 3 0 0 0 0
1180	78530 76 651 23341 0.0070001912 0.4070022536 3 0 0 0 0
1181	78606 76 651 23341 0.0070001912 0.4070022536 3 0 0 0 0
1182	78682 24 150 150 0.0000001228 0.0000001228 1 0 0 0 0
1185	78706 85 651 23341 0.0070001912 0.4070022536 3 2000 2107 6118 12483570
1187	78791 76 651 23341 0.0070001912 0.4070022536 3 0 0 0 0
1188	78867 76 651 23341 0.0070001912 0.4070022536 3 0 0 0 0
1304	78943 76 651 23341 0.0070001912 0.4070022536 3 0 0 0 0
1305	79019 4873 597 11784 0.007 0.2070005424 216 0 96 9338 590748
848	83892 5656 597 23341 0.007 0.4070022536 216 0 192 18676 2362992
847	89548 5656 597 23341 0.007 0.4070022536 216 0 192 18676 2362992
849	95204 73 651 23341 0.0070001912 0.4070022536 3 0 0 0 0
850	95277 73 651 23341 0.0070001912 0.4070022536 3 0 0 0 0
859	95350 85 651 23341 0.0070001912 0.4070022536 3 65533 65535 196603 12884246539
860	95435 112 150 23341 0.0000001228 0.4070022536 4 65533 65535 262138 17179082764
863	95547 12 123 123 0 0 1 0 0 0 0
1005	95559 24 149 149 0.0000001228 0.0000001228 1 0 0 0 0
1273	95583 28 236 236 0.0000006304 0.0000006304 1 65535 65535 65535 4294836225
1274	95611 27 236 236 0.0000006304 0.0000006304 1 8940 8940 8940 79923600
1275	95638 29 236 236 0.0000006304 0.0000006304 1 0.3725 0.3725 0.3725 0.13875625
1271	95667 24 236 236 0.0000006304 0.0000006304 1 3 3 3 9
1278	95691 24 236 236 0.0000006304 0.0000006304 1 1 1 1 1
1290	95715 24 164 164 0.0000003096 0.0000003096 1 0 0 0 0
1246	95739 28 236 236 0.0000006304 0.0000006304 1 65535 65535 65535 4294836225
1247	95767 27 236 236 0.0000006304 0.0000006304 1 8940 8940 8940 79923600
1248	95794 29 236 236 0.0000006304 0.0000006304 1 0.3725 0.3725 0.3725 0.13875625
1244	95823 24 236 236 0.0000006304 0.0000006304 1 3 3 3 9
1251	95847 24 236 236 0.0000006304 0.0000006304 1 1 1 1 1
1263	95871 24 164 164 0.0000003096 0.0000003096 1 0 0 0 0
959	95895 27 236 236 0.0000006304 0.0000006304 1 65535 65535 65535 4294836225
960	95922 26 236 236 0.0000006304 0.0000006304 1 8940 8940 8940 79923600
961	95948 28 236 236 0.0000006304 0.0000006304 1 0.3725 0.3725 0.3725 0.13875625
957	95976 46 236 301 0.0000006304 0.0000008564 2 1 3 4 10
958	96022 30 301 301 0.0000008564 0.0000008564 1 2.26e-07 2.26e-07 2.26e-07 5.1076e-14
963	96052 3000 639 11791 0.0070000972 0.2070021596 108 2000 2107 221778 455526090
966	99052 44 208 222 0.000000552 0.000000596 2 1 2 3 5
965	99096 44 208 222 0.000000552 0.000000596 2 1 2 3 5
967	99140 46 301 307 0.0000008564 0.0000009004 2 1 2 3 5
976	99186 12 132 132 0 0 1 0 0 0 0
935	99198 85 639 23334 0.0070000972 0.4070021596 3 65533 65535 196603 12884246539
939	99283 2752 639 23334 0.0070000972 0.4070021596 111 0 192 218 37356
944	102035 73 639 23334 0.0070000972 0.4070021596 3 0 0 0 0
945	102108 73 639 23334 0.0070000972 0.4070021596 3 0 0 0 0
946	102181 73 639 23334 0.0070000972 0.4070021596 3 0 0 0 0
947	102254 73 639 23334 0.0070000972 0.4070021596 3 0 0 0 0
948	102327 73 639 23334 0.0070000972 0.4070021596 3 0 0 0 0
949	102400 73 639 23334 0.0070000972 0.4070021596 3 0 0 0 0
950	102473 73 639 23334 0.0070000972 0.4070021596 3 0 0 0 0
951	102546 76 639 23334 0.0070000972 0.4070021596 3 16 16 48 768
953	102622 27 164 164 0.0000003096 0.0000003096 1 65535 65535 65535 4294836225
955	102649 3635 642 11888 0.0070000972 0.2070021596 108 9.72e-08 1.6172e-06 0.0001581776 2.5180935872e-10
956	106284 12 132 132 0 0 1 0 0 0 0
1035	106296 27 177 177 0.000000458 0.000000458 1 65535 65535 65535 4294836225
1036	106323 26 177 177 0.000000458 0.000000458 1 8940 8940 8940 79923600
1037	106349 28 177 177 0.000000458 0.000000458 1 0.3725 0.3725 0.3725 0.13875625
1033	106377 23 177 177 0.000000458 0.000000458 1 3 3 3 9
1040	106400 23 177 177 0.000000458 0.000000458 1 1 1 1 1
1048	106423 77 3418 25996 0.0570001912 0.4570022536 3 0 0 0 0
1049	106500 77 3418 25996 0.0570001912 0.4570022536 3 0 0 0 0
1050	106577 77 3418 25996 0.0570001912 0.4570022536 3 0 0 0 0
1052	106654 24 149 149 0.0000001228 0.0000001228 1 0 0 0 0
1008	106678 27 177 177 0.000000458 0.000000458 1 65535 65535 65535 4294836225
1009	106705 26 177 177 0.000000458 0.000000458 1 8940 8940 8940 79923600
1010	106731 28 177 177 0.000000458 0.000000458 1 0.3725 0.3725 0.3725 0.13875625
1006	106759 23 177 177 0.000000458 0.000000458 1 3 3 3 9
1013	106782 23 177 177 0.000000458 0.000000458 1 1 1 1 1
1021	106805 77 3418 25996 0.0570001912 0.4570022536 3 0 0 0 0
1022	106882 77 3418 25996 0.0570001912 0.4570022536 3 0 0 0 0
1023	106959 77 3418 25996 0.0570001912 0.4570022536 3 0 0 0 0
1025	107036 24 149 149 0.0000001228 0.0000001228 1 0 0 0 0
1062	107060 57 177 68384 0.000000458 1.2570005424 2 65535 65535 131070 8589672450
1063	107117 55 177 68384 0.000000458 1.2570005424 2 8940 8940 17880 159847200
1064	107172 58 177 68384 0.000000458 1.2570005424 2 0.3725 23.84 24.2125 568.48435625
1060	107230 124 177 25996 0.000000458 0.4570022536 5 1 3 7 13
1061	107354 139 256 25996 0.0000006744 0.4570022536 4 1.912e-07 0.2000017112 0.40000247 0.080000824963135
1065	107493 3113 3351 14894 0.057 0.2570005424 108 2000 2107 221778 455526090
1069	110606 48 274 288 0.0000007624 0.0000008064 2 1 2 3 5
1068	110654 48 274 288 0.0000007624 0.0000008064 2 1 2 3 5
1070	110702 48 256 266 0.0000006744 0.0000007184 2 1 2 3 5
1071	110750 5885 3351 25996 0.057 0.4570022536 216 0 192 18676 2362992
1072	116635 5885 3351 25996 0.057 0.4570022536 216 0 192 18676 2362992
1075	122520 77 3418 25996 0.0570001912 0.4570022536 3 0 0 0 0
1076	122597 77 3418 25996 0.0570001912 0.4570022536 3 0 0 0 0
1077	122674 77 3418 25996 0.0570001912 0.4570022536 3 0 0 0 0
1078	122751 77 3418 25996 0.0570001912 0.4570022536 3 0 0 0 0
1079	122828 24 149 149 0.0000001228 0.0000001228 1 0 0 0 0
1082	122852 86 3418 25996 0.0570001912 0.4570022536 3 2000 2107 6118 12483570
1084	122938 77 3418 25996 0.0570001912 0.4570022536 3 0 0 0 0
1085	123015 77 3418 25996 0.0570001912 0.4570022536 3 0 0 0 0
1300	123092 77 3418 25996 0.0570001912 0.4570022536 3 0 0 0 0
1301	123169 4909 3351 14894 0.057 0.2570005424 216 0 96 9338 590748
870	128078 5669 3351 25996 0.057 0.4570022536 216 0 192 18676 2362992
869	133747 5669 3351 25996 0.057 0.4570022536 216 0 192 18676 2362992
871	139416 74 3418 25996 0.0570001912 0.4570022536 3 0 0 0 0
872	139490 74 3418 25996 0.0570001912 0.4570022536 3 0 0 0 0
881	139564 86 3418 25996 0.0570001912 0.4570022536 3 65533 65535 196603 12884246539
882	139650 113 149 25996 0.0000001228 0.4570022536 4 65533 65535 262138 17179082764
885	139763 12 128 128 0 0 1 0 0 0 0
8	139775 8 0 0 0 0 1 0 0 0 0
9	139783 8 0 0 0 0 1 0 0 0 0
24	139791 9 0 0 0 0 1 0 0 0 0
25	139800 9 0 0 0 0 1 0 0 0 0
35	139809 9 0 0 0 0 1 0 0 0 0
36	139818 9 0 0 0 0 1 0 0 0 0
56	139827 9 0 0 0 0 1 0 0 0 0
57	139836 9 0 0 0 0 1 0 0 0 0
67	139845 9 0 0 0 0 1 0 0 0 0
68	139854 9 0 0 0 0 1 0 0 0 0
78	139863 9 0 0 0 0 1 0 0 0 0
79	139872 9 0 0 0 0 1 0 0 0 0
96	139881 651210 378 627301 0.002 10 36916 0 0 0 0
98	791091 345044 1094 627293 0.017 10 19536 0 0 0 0
100	1136135 130323 1365 627286 0.023 10 6052 1 6052 18316378 73906585230
101	1266458 83737 1094 627293 0.017 10 3933 1 3933 7736211 20286923979
106	1350195 362774 1094 627301 0.017 10 17533 323 710 9561745 5728179873
108	1712969 78901 6012 627299 0.1 10 4237 4 8 29811 216387
109	1791870 65799 5859 627301 0.098 10 3311 10 11 36420 400610
111	1857669 493276 1094 627301 0.017 10 22247 1 22247 247475628 3670476022620
112	2350945 457718 1094 627301 0.017 10 22247 46 614 5559531 1638467897
113	2808663 415394 1094 627301 0.017 10 22247 0 0 0 0
115	3224057 24869 5950 627230 0.099 9.999 1321 2 14 3696 13122
120	3248926 10 0 0 0 0 1 0 0 0 0
121	3248936 10 0 0 0 0 1 0 0 0 0
128	3248946 421 139 25991 0 0.4570021596 18 36 1952 3184 3950560
130	3249367 438 139 25991 0 0.4570021596 18 0 8.8e-08 3.088e-07 1.946112e-14
131	3249805 280 0 258 0 0.0000007124 13 0 2 10 14
132	3250085 828 0 25993 0 0.4570022036 37 0 1 18 18
133	3250913 423 141 25992 0 0.4570021596 18 43 1959 3310 3996018
134	3251336 442 146 23339 0.0000001228 0.4070022536 18 43 1959 3310 3996018
137	3251778 423 141 25992 0 0.4570021596 18 36 1952 3184 3950560
138	3252201 442 146 23339 0.0000001228 0.4070022536 18 36 1952 3184 3950560
141	3252643 2688 3411 15189 0.0570000972 0.2570021596 108 2 2 216 432
154	3255331 419253 3690 627169 0.062 9.998 22510 0 0 0 0
156	3674584 111901 4967 627249 0.084 10 5933 0 0 0 0
169	3786485 41383 4967 626523 0.084 9.989 1937 1 1937 1876953 2424397625
170	3827868 40553 4967 626523 0.084 9.989 1937 185 628 752157 304337631
171	3868421 36679 4967 626523 0.084 9.989 1937 0 0 0 0
173	3905100 13034 162979 626837 3.039 9.993 689 2 2 1378 2756
178	3918134 10 0 0 0 0 1 0 0 0 0
179	3918144 10 0 0 0 0 1 0 0 0 0
186	3918154 422 140 23336 0 0.4070021596 18 36 1952 3184 3950560
188	3918576 439 140 23336 0 0.4070021596 18 0 8.8e-08 3.088e-07 1.946112e-14
189	3919015 280 0 257 0 0.0000007124 13 0 2 10 14
190	3919295 830 0 23338 0 0.4070022036 37 0 1 18 18
191	3920125 424 142 23337 0 0.4070021596 18 43 1959 3310 3996018
192	3920549 441 145 25994 0.0000001228 0.4570022536 18 43 1959 3310 3996018
195	3920990 424 142 23337 0 0.4070021596 18 36 1952 3184 3950560
196	3921414 441 145 25994 0.0000001228 0.4570022536 18 36 1952 3184 3950560
199	3921855 2676 644 12079 0.0070000972 0.2070021596 108 2 2 216 432
205	3924531 85 1928 562334 0.033984720812 9.033984720812 3 44 44 132 5808
208	3924616 85 1928 562334 0.033984720812 9.033984720812 3 45 45 135 6075
209	3924701 85 1931 562337 0.033984720812 9.033984720812 3 45 45 135 6075
210	3924786 64639 162758 627078 3.036 9.997 3418 0 0 0 0
212	3989425 36074 1934 627251 0.034 10 1910 0 0 0 0
219	4025499 11223 1934 626898 0.034 9.995 543 1 543 147696 53515184
231	4036722 163 0 6268 0 0.105 10 1 2 19 37
237	4036885 85 5193 566095 0.087465974346 9.087465974346 3 44 44 132 5808
240	4036970 85 5193 566095 0.087465974346 9.087465974346 3 45 45 135 6075
241	4037055 14852 5196 627047 0.087465974346 9.997 780 0 45 239 7571
242	4051907 29128 374457 627284 6.11 10 1556 0 0 0 0
243	4081035 14763 374526 627043 6.112 9.997 777 0 0 0 0
244	4095798 37305 5200 627097 0.088 9.998 1983 0 0 0 0
251	4133103 25009 5200 373905 0.088 6.103 1204 1 1204 725410 582504230
263	4158112 10 0 0 0 0 1 1 1 1 1
269	4158122 85 5557 566524 0.093058322349 9.093058322349 3 44 44 132 5808
272	4158207 85 5557 566524 0.093058322349 9.093058322349 3 45 45 135 6075
273	4158292 3712 5560 627103 0.093058322349 9.998 194 0 45 241 7661
274	4162004 106757 1335 627242 0.022 9.999 5694 0 0 0 0
275	4268761 3621 5775 627099 0.098 9.998 191 0 0 0 0
276	4272382 102900 1335 627242 0.022 9.999 5489 0 0 0 0
280	4375282 261 1424 5612 0.024 0.094 15 1 15 120 1240
295	4375543 10 0 0 0 0 1 1 1 1 1
301	4375553 85 5864 566908 0.098821217397 9.098821217397 3 44 44 132 5808
304	4375638 85 5864 566908 0.098821217397 9.098821217397 3 45 45 135 6075
305	4375723 85 5867 566911 0.098821217397 9.098821217397 3 45 45 135 6075
308	4375808 26239 167058 627200 3.099 9.999 1381 0 0 0 0
314	4402047 29275 167058 627200 3.099 9.999 1381 1 1381 954271 878883591
327	4431322 163 0 6269 0 0.105 10 1 2 19 37
333	4431485 85 4528 565303 0.076266208328 9.076266208328 3 44 44 132 5808
336	4431570 85 4528 565303 0.076266208328 9.076266208328 3 45 45 135 6075
337	4431655 85 4531 565306 0.076266208328 9.076266208328 3 45 45 135 6075
340	4431740 26332 4539 627050 0.077 9.997 1386 0 0 0 0
347	4458072 29383 4539 627050 0.077 9.997 1386 1 1386 961191 888460881
359	4487455 163 0 6270 0 0.105 10 1 2 19 37
365	4487618 85 1808 562151 0.031389955268 9.031389955268 3 44 44 132 5808
368	4487703 85 1808 562151 0.031389955268 9.031389955268 3 45 45 135 6075
369	4487788 85 1811 562154 0.031389955268 9.031389955268 3 45 45 135 6075
372	4487873 26571 1820 627052 0.032 9.997 1399 0 0 0 0
379	4514444 29661 1820 627052 0.032 9.997 1399 1 1399 979300 913686900
391	4544105 163 0 6271 0 0.105 10 1 2 19 37
397	4544268 85 4912 565780 0.083256449993 9.083256449993 3 44 44 132 5808
400	4544353 85 4912 565780 0.083256449993 9.083256449993 3 45 45 135 6075
401	4544438 125 4915 566113 0.083256449993 9.088 5 45 47 229 10493
402	4544563 93 5107 566079 0.086 9.087 5 0 0 0 0
403	4544656 38 166230 566109 3.088 9.088 2 0 0 0 0
404	4544694 55 4944 565813 0.084 9.084 3 0 0 0 0
423	4544749 163 0 6272 0 0.105 10 1 2 19 37
429	4544912 85 1659 561991 0.029577355213 9.029577355213 3 44 44 132 5808
432	4544997 85 1659 561991 0.029577355213 9.029577355213 3 45 45 135 6075
433	4545082 22442 1662 563037 0.029577355213 9.044 1200 0 45 294 9000
434	4567524 64931 1866 627245 0.032 9.999 3465 0 0 0 0
435	4632455 22351 1942 563033 0.034 9.044 1197 0 0 0 0
436	4654806 41906 1692 627245 0.03 9.999 2268 0 0 0 0
455	4696712 10 0 0 0 0 1 1 1 1 1
461	4696722 85 1278 561413 0.020429364846 9.020429364846 3 44 44 132 5808
464	4696807 85 1278 561413 0.020429364846 9.020429364846 3 45 45 135 6075
465	4696892 85 1281 561416 0.020429364846 9.020429364846 3 45 45 135 6075
466	4696977 14887 5260 626191 0.089 9.984 796 0 0 0 0
468	4711864 52413 1292 626980 0.021 9.996 2792 0 0 0 0
474	4764277 42407 1292 626980 0.021 9.996 1996 1 1996 1993006 2652690986
487	4806684 10 0 0 0 0 1 1 1 1 1
493	4806694 85 1373 561571 0.023409340573 9.023409340573 3 44 44 132 5808
496	4806779 85 1373 561571 0.023409340573 9.023409340573 3 45 45 135 6075
497	4806864 164 1376 562288 0.023409340573 9.033 7 4 45 233 9377
498	4807028 479 1040 562241 0.015 9.032 27 0 0 0 0
499	4807507 76 162214 562284 3.028 9.033 4 0 0 0 0
500	4807583 522 1040 561947 0.015 9.029 30 0 0 0 0
506	4808105 119 1408 3116 0.024 0.054 7 1 7 28 140
519	4808224 163 0 6273 0 0.105 10 1 2 19 37
525	4808387 85 1876 562261 0.032763117831 9.032763117831 3 44 44 132 5808
528	4808472 85 1876 562261 0.032763117831 9.032763117831 3 45 45 135 6075
529	4808557 85 1879 562264 0.032763117831 9.032763117831 3 45 45 135 6075
530	4808642 53005 1917 627182 0.033 9.998 2791 0 0 0 0
532	4861647 79576 1900 627182 0.033 9.998 4190 0 0 0 0
538	4941223 29661 1900 627111 0.033 9.998 1399 1 1399 979300 913686900
551	4970884 163 0 6274 0 0.105 10 1 2 19 37
557	4971047 85 3751 564350 0.062601716756 9.062601716756 3 44 44 132 5808
560	4971132 85 3751 564350 0.062601716756 9.062601716756 3 45 45 135 6075
561	4971217 184 3754 565688 0.062601716756 9.082 8 5 47 235 9077
562	4971401 865 1067 565647 0.016 9.081 50 0 0 0 0
563	4972266 95 164793 565684 3.067 9.082 5 0 0 0 0
564	4972361 449 1067 565402 0.016 9.078 26 0 0 0 0
568	4972810 119 1594 3399 0.027 0.057 7 1 7 28 140
569	4972929 207 1141 3079 0.018 0.053 12 1 12 78 650
583	4973136 163 0 6275 0 0.105 10 1 2 19 37
589	4973299 85 4871 565723 0.082919128996 9.082919128996 3 44 44 132 5808
592	4973384 85 4871 565723 0.082919128996 9.082919128996 3 45 45 135 6075
593	4973469 184 4874 566774 0.082919128996 9.097 8 3 45 235 8497
594	4973653 55272 5024 627278 0.085 10 2950 0 0 0 0
595	5028925 95 166173 566770 3.087 9.097 5 0 0 0 0
596	5029020 55179 4889 627278 0.083 10 2945 0 0 0 0
615	5084199 163 0 6276 0 0.105 10 1 2 19 37
621	5084362 82 1884 562268 0.03277608233 9.03277608233 3 44 44 132 5808
624	5084444 82 1884 562268 0.03277608233 9.03277608233 3 45 45 135 6075
625	5084526 11748 1887 562271 0.03277608233 9.03277608233 617 0 45 149 6173
626	5096274 23007 162693 374150 3.035 6.106 1229 0 0 0 0
627	5119281 11666 162808 374192 3.037 6.107 614 0 0 0 0
628	5130947 26571 1904 627115 0.033 9.998 1399 0 0 0 0
634	5157518 16251 374264 627115 6.108 9.998 779 1 779 303810 157879930
635	5173769 85 1904 3055 0.033 0.053 5 1 5 15 55
647	5173854 163 0 6277 0 0.105 10 1 2 19 37
653	5174017 85 3607 564172 0.060278170027 9.060278170027 3 44 44 132 5808
656	5174102 85 3607 564172 0.060278170027 9.060278170027 3 45 45 135 6075
657	5174187 11260 3610 564175 0.060278170027 9.060278170027 609 0 45 149 6173
658	5185447 34616 4671 374049 0.079 6.104 1822 0 0 0 0
659	5220063 11175 164650 374081 3.065 6.105 606 0 0 0 0
660	5231238 37920 3648 626987 0.061 9.996 1996 0 0 0 0
666	5269158 16251 374139 626987 6.106 9.996 779 1 779 303810 157879930
667	5285409 17 3648 3648 0.061 0.061 1 1 1 1 1
679	5285426 163 0 6278 0 0.105 10 1 2 19 37
685	5285589 85 5271 566213 0.089455451544 9.089455451544 3 44 44 132 5808
688	5285674 85 5271 566213 0.089455451544 9.089455451544 3 45 45 135 6075
689	5285759 143 5274 566559 0.089455451544 9.094 6 45 47 276 12702
690	5285902 44447 5323 566504 0.09 9.093 2414 0 0 0 0
691	5330349 55 5591 566555 0.094 9.094 3 0 0 0 0
692	5330404 44372 5313 566256 0.09 9.09 2410 0 0 0 0
697	5374776 17 5469 5469 0.092 0.092 1 1 1 1 1
711	5374793 10 0 0 0 0 1 1 1 1 1
717	5374803 85 2993 563586 0.051714848483 9.051714848483 3 44 44 132 5808
720	5374888 85 2993 563586 0.051714848483 9.051714848483 3 45 45 135 6075
721	5374973 85 2996 563589 0.051714848483 9.051714848483 3 45 45 135 6075
724	5375058 37424 3017 627064 0.052 9.997 1990 0 0 0 0
730	5412482 42287 3017 627064 0.052 9.997 1990 1 1990 1981045 2628846715
743	5454769 10 0 0 0 0 1 1 1 1 1
749	5454779 84 962 560899 0.013945144669 9.013945144669 3 44 44 132 5808
752	5454863 84 962 560899 0.013945144669 9.013945144669 3 45 45 135 6075
753	5454947 426 965 564012 0.013945144669 9.058 21 7 45 261 6957
754	5455373 684 161549 563971 3.016 9.057 36 0 0 0 0
755	5456057 342 161638 564008 3.018 9.058 18 0 0 0 0
756	5456399 494 985 563733 0.014 9.054 27 0 0 0 0
763	5456893 152 985 3125 0.014 0.054 9 1 9 45 285
775	5457045 163 0 6279 0 0.105 10 1 2 19 37
781	5457208 85 3551 564092 0.059049774688 9.059049774688 3 44 44 132 5808
784	5457293 85 3551 564092 0.059049774688 9.059049774688 3 45 45 135 6075
785	5457378 603 3554 565483 0.059049774688 9.079 30 0 45 286 9718
786	5457981 233000 1965 627296 0.034 10 12386 0 0 0 0
787	5690981 511 92282 565479 1.709 9.079 27 0 0 0 0
788	5691492 187327 1965 627296 0.034 10 9961 0 0 0 0
792	5878819 37236 2076 368624 0.036 6.026 1791 1 1791 1604736 1916589696
793	5916055 12617 2081 368626 0.036 6.026 607 1 607 184528 74733840
807	5928672 10 0 0 0 0 1 1 1 1 1
813	5928682 85 5565 566531 0.093147725489 9.093147725489 3 44 44 132 5808
816	5928767 85 5565 566531 0.093147725489 9.093147725489 3 45 45 135 6075
817	5928852 85 5568 566534 0.093147725489 9.093147725489 3 45 45 135 6075
818	5928937 92300 5706 627177 0.096 9.998 4908 0 0 0 0
820	6021237 79897 5599 627217 0.094 9.999 4249 0 0 0 0
826	6101134 13628 6204 625865 0.104 9.979 660 1 660 218130 96049910
839	6114762 10 0 0 0 0 1 1 1 1 1
1319	6114772 93 959 560896 0.013945144669 9.013945144669 3 7504 7504 22512 168930048
1320	6114865 93 959 560896 0.013945144669 9.013945144669 3 7504 7504 22512 168930048
1322	6114958 84 959 560896 0.013945144669 9.013945144669 3 0 0 0 0
1333	6115042 84 959 560896 0.013945144669 9.013945144669 3 0 0 0 0
1343	6115126 94 1275 561410 0.020429364846 9.020429364846 3 7504 7504 22512 168930048
1344	6115220 94 1275 561410 0.020429364846 9.020429364846 3 7504 7504 22512 168930048
1346	6115314 85 1275 561410 0.020429364846 9.020429364846 3 0 0 0 0
1357	6115399 85 1275 561410 0.020429364846 9.020429364846 3 0 0 0 0
1367	6115484 94 1370 561568 0.023409340573 9.023409340573 3 7504 7504 22512 168930048
1368	6115578 94 1370 561568 0.023409340573 9.023409340573 3 7504 7504 22512 168930048
1370	6115672 85 1370 561568 0.023409340573 9.023409340573 3 0 0 0 0
1381	6115757 85 1370 561568 0.023409340573 9.023409340573 3 0 0 0 0
1391	6115842 94 1656 561988 0.029577355213 9.029577355213 3 7504 7504 22512 168930048
1392	6115936 94 1656 561988 0.029577355213 9.029577355213 3 7504 7504 22512 168930048
1394	6116030 85 1656 561988 0.029577355213 9.029577355213 3 0 0 0 0
1405	6116115 85 1656 561988 0.029577355213 9.029577355213 3 0 0 0 0
1415	6116200 94 1805 562148 0.031389955268 9.031389955268 3 7504 7504 22512 168930048
1416	6116294 94 1805 562148 0.031389955268 9.031389955268 3 7504 7504 22512 168930048
1418	6116388 85 1805 562148 0.031389955268 9.031389955268 3 0 0 0 0
1429	6116473 85 1805 562148 0.031389955268 9.031389955268 3 0 0 0 0
1439	6116558 94 1873 562258 0.032763117831 9.032763117831 3 7504 7504 22512 168930048
1440	6116652 94 1873 562258 0.032763117831 9.032763117831 3 7504 7504 22512 168930048
1442	6116746 85 1873 562258 0.032763117831 9.032763117831 3 0 0 0 0
1453	6116831 85 1873 562258 0.032763117831 9.032763117831 3 0 0 0 0
1463	6116916 91 1881 562265 0.03277608233 9.03277608233 3 7504 7504 22512 168930048
1464	6117007 91 1881 562265 0.03277608233 9.03277608233 3 7504 7504 22512 168930048
1466	6117098 82 1881 562265 0.03277608233 9.03277608233 3 0 0 0 0
1477	6117180 82 1881 562265 0.03277608233 9.03277608233 3 0 0 0 0
1487	6117262 94 1925 562331 0.033984720812 9.033984720812 3 7504 7504 22512 168930048
1488	6117356 94 1925 562331 0.033984720812 9.033984720812 3 7504 7504 22512 168930048
1490	6117450 85 1925 562331 0.033984720812 9.033984720812 3 0 0 0 0
1501	6117535 85 1925 562331 0.033984720812 9.033984720812 3 0 0 0 0
1511	6117620 94 2990 563583 0.051714848483 9.051714848483 3 7504 7504 22512 168930048
1512	6117714 94 2990 563583 0.051714848483 9.051714848483 3 7504 7504 22512 168930048
1514	6117808 85 2990 563583 0.051714848483 9.051714848483 3 0 0 0 0
1525	6117893 85 2990 563583 0.051714848483 9.051714848483 3 0 0 0 0
1535	6117978 94 3548 564089 0.059049774688 9.059049774688 3 7504 7504 22512 168930048
1536	6118072 94 3548 564089 0.059049774688 9.059049774688 3 7504 7504 22512 168930048
1538	6118166 85 3548 564089 0.059049774688 9.059049774688 3 0 0 0 0
1549	6118251 85 3548 564089 0.059049774688 9.059049774688 3 0 0 0 0
1559	6118336 94 3604 564169 0.060278170027 9.060278170027 3 7504 7504 22512 168930048
1560	6118430 94 3604 564169 0.060278170027 9.060278170027 3 7504 7504 22512 168930048
1562	6118524 85 3604 564169 0.060278170027 9.060278170027 3 0 0 0 0
1573	6118609 85 3604 564169 0.060278170027 9.060278170027 3 0 0 0 0
1583	6118694 94 3748 564347 0.062601716756 9.062601716756 3 7504 7504 22512 168930048
1584	6118788 94 3748 564347 0.062601716756 9.062601716756 3 7504 7504 22512 168930048
1586	6118882 85 3748 564347 0.062601716756 9.062601716756 3 0 0 0 0
1597	6118967 85 3748 564347 0.062601716756 9.062601716756 3 0 0 0 0
1607	6119052 94 4525 565300 0.076266208328 9.076266208328 3 7504 7504 22512 168930048
1608	6119146 94 4525 565300 0.076266208328 9.076266208328 3 7504 7504 22512 168930048
1610	6119240 85 4525 565300 0.076266208328 9.076266208328 3 0 0 0 0
1621	6119325 85 4525 565300 0.076266208328 9.076266208328 3 0 0 0 0
1631	6119410 94 4868 565720 0.082919128996 9.082919128996 3 7504 7504 22512 168930048
1632	6119504 94 4868 565720 0.082919128996 9.082919128996 3 7504 7504 22512 168930048
1634	6119598 85 4868 565720 0.082919128996 9.082919128996 3 0 0 0 0
1645	6119683 85 4868 565720 0.082919128996 9.082919128996 3 0 0 0 0
1655	6119768 94 4909 565777 0.083256449993 9.083256449993 3 7504 7504 22512 168930048
1656	6119862 94 4909 565777 0.083256449993 9.083256449993 3 7504 7504 22512 168930048
1658	6119956 85 4909 565777 0.083256449993 9.083256449993 3 0 0 0 0
1669	6120041 85 4909 565777 0.083256449993 9.083256449993 3 0 0 0 0
1679	6120126 94 5190 566092 0.087465974346 9.087465974346 3 7504 7504 22512 168930048
1680	6120220 94 5190 566092 0.087465974346 9.087465974346 3 7504 7504 22512 168930048
1682	6120314 85 5190 566092 0.087465974346 9.087465974346 3 0 0 0 0
1693	6120399 85 5190 566092 0.087465974346 9.087465974346 3 0 0 0 0
1703	6120484 94 5268 566210 0.089455451544 9.089455451544 3 7504 7504 22512 168930048
1704	6120578 94 5268 566210 0.089455451544 9.089455451544 3 7504 7504 22512 168930048
1706	6120672 85 5268 566210 0.089455451544 9.089455451544 3 0 0 0 0
1717	6120757 85 5268 566210 0.089455451544 9.089455451544 3 0 0 0 0
1727	6120842 94 5554 566521 0.093058322349 9.093058322349 3 7504 7504 22512 168930048
1728	6120936 94 5554 566521 0.093058322349 9.093058322349 3 7504 7504 22512 168930048
1730	6121030 85 5554 566521 0.093058322349 9.093058322349 3 0 0 0 0
1741	6121115 85 5554 566521 0.093058322349 9.093058322349 3 0 0 0 0
1751	6121200 94 5562 566528 0.093147725489 9.093147725489 3 7504 7504 22512 168930048
1752	6121294 94 5562 566528 0.093147725489 9.093147725489 3 7504 7504 22512 168930048
1754	6121388 85 5562 566528 0.093147725489 9.093147725489 3 0 0 0 0
1765	6121473 85 5562 566528 0.093147725489 9.093147725489 3 0 0 0 0
1775	6121558 94 5861 566905 0.098821217397 9.098821217397 3 7504 7504 22512 168930048
1776	6121652 94 5861 566905 0.098821217397 9.098821217397 3 7504 7504 22512 168930048
1778	6121746 85 5861 566905 0.098821217397 9.098821217397 3 0 0 0 0
1789	6121831 85 5861 566905 0.098821217397 9.098821217397 3 0 0 0 0
