file 156404236 1580846430                                       
version 2
run CAIN-29-20200204-16:57:31-21553
attr configname CAIN
attr datetime 20200204-16:57:31
attr dist 200
attr experiment CAIN
attr inifile omnetpp.ini
attr iterationvars "$dist=200, $numUe=30, $mob=\"./movements/RWPRPGM-0.5.movements\""
attr iterationvars2 "$dist=200, $numUe=30, $mob=\"./movements/RWPRPGM-0.5.movements\", $repetition=0"
attr measurement "$dist=200, $numUe=30, $mob=\"./movements/RWPRPGM-0.5.movements\""
attr mob "\"./movements/RWPRPGM-0.5.movements\""
attr network lte.simulations.networks.CAIN
attr numUe 30
attr processid 21553
attr repetition 0
attr replication #0
attr resultdir results
attr runnumber 29
attr seedset 0
param **.**.amcMode "\"AUTO\""
param **.amcMode "\"D2D\""
param **.cainNetwork true
param **.channelControl.alpha 1.0
param **.channelControl.carrierFrequency 2100e+6Hz
param **.channelControl.pMax 10W
param **.d2dCqi 7
param **.deployer.numRbDl 50
param **.deployer.numRbUl 50
param **.distThresh "${dist=200..260 step 10}"
param **.fbDelay 1
param **.feedbackComputation "xmldoc(\"config_channel.xml\")"
param **.mobility.constraintAreaMaxX 1000m
param **.mobility.constraintAreaMaxY 1000m
param **.mobility.constraintAreaMaxZ 0m
param **.mobility.constraintAreaMinX 0m
param **.mobility.constraintAreaMinY 0m
param **.mobility.constraintAreaMinZ 0m
param **.nic.phy.channelModel "xmldoc(\"config_channel.xml\")"
param **.numBands 50
param **.pwrThresh -10
param **.qtdThresh 3
param **.rbAllocationType "\"localized\""
param **.routingRecorder.enabled false
param **.tcpApp[*].tClose -1s
param **.ueD2DTx[*].mobility.changeAngleBy "normal(0deg, 30deg)"
param **.ueD2DTx[*].mobility.changeInterval "normal(5s, 0.1s)"
param **.ueD2DTx[*].mobility.nodeId -1
param **.ueD2DTx[*].mobility.speed "normal(2mps, 0.01mps)"
param **.ueD2DTx[*].mobility.traceFile "${mob=\"./movements/RWP-0.0.movements\",\"./movements/RWP-0.5.movements\",\"./movements/RPGM-0.0.movements\",\"./movements/RPGM-0.5.movements\",\"./movements/RWPRPGM-0.0.movements\",\"./movements/RWPRPGM-0.5.movements\"}"
param **.ueD2DTx[*].mobilityType "\"BonnMotionMobility\""
param **.usePreconfiguredTxParams false
param *.eNodeB.d2dCapable false
param *.eNodeB.mobility.initFromDisplayString false
param *.eNodeB.mobility.initialX 300m
param *.eNodeB.mobility.initialY 300m
param *.eNodeB.nic.phy.enableD2DCqiReporting true
param *.eNodeB.txPower 19952.62315mw
param *.numUeCell 0
param *.numUeD2DRx 1
param *.numUeD2DTx 1
param *.ue*.macCellId 1
param *.ue*.masterId 1
param *.ue*.mobility.initFromDisplayString false
param *.ue*[0].macCellId 1
param *.ue*[0].masterId 1
param *.ue*[0].mobility.initFromDisplayString false
param *.ueD2D*.numTcpApps 1
param *.ueD2D*[*].d2dCapable true
param *.ueD2D*[0].d2dCapable false
param *.ueD2D*[0].numTcpApps 1
param *.ueD2DRx[0].mobility.initialX 310m
param *.ueD2DRx[0].mobility.initialY 350m
param *.ueD2DRx[0].tcpApp[*].localPort 1000
param *.ueD2DRx[0].tcpApp[*].typename "\"TCPSinkApp\""
param *.ueD2DTx*.tcpApp[*].connectAddress "\"ueD2DTx[0]\""
param *.ueD2DTx*.tcpApp[*].localAddress "\"ueD2DTx\""
param *.ueD2DTx*.tcpApp[*].localPort 1000
param *.ueD2DTx*.tcpApp[*].sendBytes 1GiB
param *.ueD2DTx*.tcpApp[*].typename "\"TCPSessionApp\""
param *.ueD2DTx*.tcpApp[0].active true
param *.ueD2DTx*.tcpApp[0].connectPort 1000
param *.ueD2DTx*.tcpApp[0].tOpen uniform(0.010s,0.1s)
param *.ueD2DTx*.tcpApp[0].tSend uniform(0.15s,0.5s)
param *.ueD2DTx[0].mobility.initialX 290m
param *.ueD2DTx[0].mobility.initialY 350m
param *.ueD2DTx[0].nic.d2dPeerAddresses "\"ueD2DTx[1]\""
param *.ueD2DTx[0].tcpApp[*].localPort 1000
param *.ueD2DTx[0].tcpApp[*].sendBytes 1GiB
param *.ueD2DTx[0].tcpApp[*].typename "\"TCPSessionApp\""
param *.ueD2DTx[0].tcpApp[0].active true
param *.ueD2DTx[0].tcpApp[0].connectAddress "\"ueD2DRx[0]\""
param *.ueD2DTx[0].tcpApp[0].connectPort 1000
param *.ueD2DTx[0].tcpApp[0].localAddress "\"ueD2DTx[0]\""
param *.ueD2DTx[0].tcpApp[0].tOpen uniform(0.010s,0.1s)
param *.ueD2DTx[0].tcpApp[0].tSend uniform(0.15s,0.5s)
param *.ueD2DTx[1].nic.d2dPeerAddresses "\"ueD2DTx[0]\""

vector 8  CAIN.server.ppp[0].queue  queueLength:vector  ETV
attr interpolationmode  sample-hold
attr title  "queue length, vector"
vector 9  CAIN.server.ppp[0].ppp  txState:vector  ETV
attr interpolationmode  sample-hold
attr title  "tx state, vector"
vector 24  CAIN.router.ppp[0].queue  queueLength:vector  ETV
attr interpolationmode  sample-hold
attr title  "queue length, vector"
vector 25  CAIN.router.ppp[0].ppp  txState:vector  ETV
attr interpolationmode  sample-hold
attr title  "tx state, vector"
vector 35  CAIN.router.ppp[1].queue  queueLength:vector  ETV
attr interpolationmode  sample-hold
attr title  "queue length, vector"
vector 36  CAIN.router.ppp[1].ppp  txState:vector  ETV
attr interpolationmode  sample-hold
attr title  "tx state, vector"
vector 56  CAIN.pgw.ppp[0].queue  queueLength:vector  ETV
attr interpolationmode  sample-hold
attr title  "queue length, vector"
vector 57  CAIN.pgw.ppp[0].ppp  txState:vector  ETV
attr interpolationmode  sample-hold
attr title  "tx state, vector"
vector 67  CAIN.pgw.pppInterface.queue  queueLength:vector  ETV
attr interpolationmode  sample-hold
attr title  "queue length, vector"
vector 68  CAIN.pgw.pppInterface.ppp  txState:vector  ETV
attr interpolationmode  sample-hold
attr title  "tx state, vector"
vector 104  CAIN.eNodeB.pppIf.queue  queueLength:vector  ETV
attr interpolationmode  sample-hold
attr title  "queue length, vector"
vector 105  CAIN.eNodeB.pppIf.ppp  txState:vector  ETV
attr interpolationmode  sample-hold
attr title  "tx state, vector"
vector 138  CAIN.ueD2DTx[0].nic.phy  servingCell:vector  ETV
attr source  servingCell
attr title  "ID of the serving eNodeB for the UE, vector"
attr unit  ""
vector 165  CAIN.ueD2DTx[1].nic.phy  servingCell:vector  ETV
attr source  servingCell
attr title  "ID of the serving eNodeB for the UE, vector"
attr unit  ""
vector 192  CAIN.ueD2DTx[2].nic.phy  servingCell:vector  ETV
attr source  servingCell
attr title  "ID of the serving eNodeB for the UE, vector"
attr unit  ""
vector 219  CAIN.ueD2DTx[3].nic.phy  servingCell:vector  ETV
attr source  servingCell
attr title  "ID of the serving eNodeB for the UE, vector"
attr unit  ""
vector 246  CAIN.ueD2DTx[4].nic.phy  servingCell:vector  ETV
attr source  servingCell
attr title  "ID of the serving eNodeB for the UE, vector"
attr unit  ""
vector 273  CAIN.ueD2DTx[5].nic.phy  servingCell:vector  ETV
attr source  servingCell
attr title  "ID of the serving eNodeB for the UE, vector"
attr unit  ""
vector 300  CAIN.ueD2DTx[6].nic.phy  servingCell:vector  ETV
attr source  servingCell
attr title  "ID of the serving eNodeB for the UE, vector"
attr unit  ""
vector 327  CAIN.ueD2DTx[7].nic.phy  servingCell:vector  ETV
attr source  servingCell
attr title  "ID of the serving eNodeB for the UE, vector"
attr unit  ""
vector 354  CAIN.ueD2DTx[8].nic.phy  servingCell:vector  ETV
attr source  servingCell
attr title  "ID of the serving eNodeB for the UE, vector"
attr unit  ""
vector 381  CAIN.ueD2DTx[9].nic.phy  servingCell:vector  ETV
attr source  servingCell
attr title  "ID of the serving eNodeB for the UE, vector"
attr unit  ""
vector 408  CAIN.ueD2DTx[10].nic.phy  servingCell:vector  ETV
attr source  servingCell
attr title  "ID of the serving eNodeB for the UE, vector"
attr unit  ""
vector 435  CAIN.ueD2DTx[11].nic.phy  servingCell:vector  ETV
attr source  servingCell
attr title  "ID of the serving eNodeB for the UE, vector"
attr unit  ""
vector 462  CAIN.ueD2DTx[12].nic.phy  servingCell:vector  ETV
attr source  servingCell
attr title  "ID of the serving eNodeB for the UE, vector"
attr unit  ""
vector 489  CAIN.ueD2DTx[13].nic.phy  servingCell:vector  ETV
attr source  servingCell
attr title  "ID of the serving eNodeB for the UE, vector"
attr unit  ""
vector 516  CAIN.ueD2DTx[14].nic.phy  servingCell:vector  ETV
attr source  servingCell
attr title  "ID of the serving eNodeB for the UE, vector"
attr unit  ""
vector 543  CAIN.ueD2DTx[15].nic.phy  servingCell:vector  ETV
attr source  servingCell
attr title  "ID of the serving eNodeB for the UE, vector"
attr unit  ""
vector 570  CAIN.ueD2DTx[16].nic.phy  servingCell:vector  ETV
attr source  servingCell
attr title  "ID of the serving eNodeB for the UE, vector"
attr unit  ""
vector 597  CAIN.ueD2DTx[17].nic.phy  servingCell:vector  ETV
attr source  servingCell
attr title  "ID of the serving eNodeB for the UE, vector"
attr unit  ""
vector 624  CAIN.ueD2DTx[18].nic.phy  servingCell:vector  ETV
attr source  servingCell
attr title  "ID of the serving eNodeB for the UE, vector"
attr unit  ""
vector 651  CAIN.ueD2DTx[19].nic.phy  servingCell:vector  ETV
attr source  servingCell
attr title  "ID of the serving eNodeB for the UE, vector"
attr unit  ""
vector 678  CAIN.ueD2DTx[20].nic.phy  servingCell:vector  ETV
attr source  servingCell
attr title  "ID of the serving eNodeB for the UE, vector"
attr unit  ""
vector 705  CAIN.ueD2DTx[21].nic.phy  servingCell:vector  ETV
attr source  servingCell
attr title  "ID of the serving eNodeB for the UE, vector"
attr unit  ""
vector 732  CAIN.ueD2DTx[22].nic.phy  servingCell:vector  ETV
attr source  servingCell
attr title  "ID of the serving eNodeB for the UE, vector"
attr unit  ""
vector 759  CAIN.ueD2DTx[23].nic.phy  servingCell:vector  ETV
attr source  servingCell
attr title  "ID of the serving eNodeB for the UE, vector"
attr unit  ""
vector 786  CAIN.ueD2DTx[24].nic.phy  servingCell:vector  ETV
attr source  servingCell
attr title  "ID of the serving eNodeB for the UE, vector"
attr unit  ""
vector 813  CAIN.ueD2DTx[25].nic.phy  servingCell:vector  ETV
attr source  servingCell
attr title  "ID of the serving eNodeB for the UE, vector"
attr unit  ""
vector 840  CAIN.ueD2DTx[26].nic.phy  servingCell:vector  ETV
attr source  servingCell
attr title  "ID of the serving eNodeB for the UE, vector"
attr unit  ""
vector 867  CAIN.ueD2DTx[27].nic.phy  servingCell:vector  ETV
attr source  servingCell
attr title  "ID of the serving eNodeB for the UE, vector"
attr unit  ""
vector 894  CAIN.ueD2DTx[28].nic.phy  servingCell:vector  ETV
attr source  servingCell
attr title  "ID of the serving eNodeB for the UE, vector"
attr unit  ""
vector 921  CAIN.ueD2DTx[29].nic.phy  servingCell:vector  ETV
attr source  servingCell
attr title  "ID of the serving eNodeB for the UE, vector"
attr unit  ""
vector 85  CAIN.eNodeB.nic.mac  receivedPacketFromLowerLayer:vector(packetBytes)  ETV
attr interpolationmode  none
attr source  receivedPacketFromLowerLayer
vector 939  CAIN.ueD2DTx[4].tcp  tcpRcvQueueBytes  ETV
vector 926  CAIN.ueD2DTx[4].tcp  "advertised window"  ETV
vector 925  CAIN.ueD2DTx[4].tcp  "receive window"  ETV
vector 928  CAIN.ueD2DTx[4].tcp  "sent ack"  ETV
vector 225  CAIN.ueD2DTx[4].nic.pdcpRrc  receivedPacketFromUpperLayer:vector(packetBytes)  ETV
attr interpolationmode  none
attr source  receivedPacketFromUpperLayer
vector 228  CAIN.ueD2DTx[4].nic.pdcpRrc  sentPacketToLowerLayer:vector(packetBytes)  ETV
attr interpolationmode  none
attr source  sentPacketToLowerLayer
vector 229  CAIN.ueD2DTx[4].nic.mac  receivedPacketFromUpperLayer:vector(packetBytes)  ETV
attr interpolationmode  none
attr source  receivedPacketFromUpperLayer
vector 232  CAIN.ueD2DTx[4].nic.mac  sentPacketToLowerLayer:vector(packetBytes)  ETV
attr interpolationmode  none
attr source  sentPacketToLowerLayer
vector 96  CAIN.eNodeB.nic.mac  racpkt:vector  ETV
attr interpolationmode  none
attr title  "eNB received racpkt message, vector"
vector 97  CAIN.eNodeB.nic.mac  racDistanceSignal:vector  ETV
attr interpolationmode  none
attr title  "Rac distance to enb, vector"
vector 87  CAIN.eNodeB.nic.mac  sentPacketToLowerLayer:vector(packetBytes)  ETV
attr interpolationmode  none
attr source  sentPacketToLowerLayer
vector 149  CAIN.ueD2DTx[1].nic.mac  receivedPacketFromLowerLayer:vector(packetBytes)  ETV
attr interpolationmode  none
attr source  receivedPacketFromLowerLayer
vector 160  CAIN.ueD2DTx[1].nic.mac  racpkt:vector  ETV
attr interpolationmode  none
attr title  "eNB received racpkt message, vector"
vector 161  CAIN.ueD2DTx[1].nic.mac  racDistanceSignal:vector  ETV
attr interpolationmode  none
attr title  "Rac distance to enb, vector"
vector 151  CAIN.ueD2DTx[1].nic.mac  sentPacketToLowerLayer:vector(packetBytes)  ETV
attr interpolationmode  none
attr source  sentPacketToLowerLayer
vector 365  CAIN.ueD2DTx[9].nic.mac  receivedPacketFromLowerLayer:vector(packetBytes)  ETV
attr interpolationmode  none
attr source  receivedPacketFromLowerLayer
vector 376  CAIN.ueD2DTx[9].nic.mac  racpkt:vector  ETV
attr interpolationmode  none
attr title  "eNB received racpkt message, vector"
vector 377  CAIN.ueD2DTx[9].nic.mac  racDistanceSignal:vector  ETV
attr interpolationmode  none
attr title  "Rac distance to enb, vector"
vector 367  CAIN.ueD2DTx[9].nic.mac  sentPacketToLowerLayer:vector(packetBytes)  ETV
attr interpolationmode  none
attr source  sentPacketToLowerLayer
vector 446  CAIN.ueD2DTx[12].nic.mac  receivedPacketFromLowerLayer:vector(packetBytes)  ETV
attr interpolationmode  none
attr source  receivedPacketFromLowerLayer
vector 457  CAIN.ueD2DTx[12].nic.mac  racpkt:vector  ETV
attr interpolationmode  none
attr title  "eNB received racpkt message, vector"
vector 458  CAIN.ueD2DTx[12].nic.mac  racDistanceSignal:vector  ETV
attr interpolationmode  none
attr title  "Rac distance to enb, vector"
vector 448  CAIN.ueD2DTx[12].nic.mac  sentPacketToLowerLayer:vector(packetBytes)  ETV
attr interpolationmode  none
attr source  sentPacketToLowerLayer
vector 500  CAIN.ueD2DTx[14].nic.mac  receivedPacketFromLowerLayer:vector(packetBytes)  ETV
attr interpolationmode  none
attr source  receivedPacketFromLowerLayer
vector 511  CAIN.ueD2DTx[14].nic.mac  racpkt:vector  ETV
attr interpolationmode  none
attr title  "eNB received racpkt message, vector"
vector 512  CAIN.ueD2DTx[14].nic.mac  racDistanceSignal:vector  ETV
attr interpolationmode  none
attr title  "Rac distance to enb, vector"
vector 502  CAIN.ueD2DTx[14].nic.mac  sentPacketToLowerLayer:vector(packetBytes)  ETV
attr interpolationmode  none
attr source  sentPacketToLowerLayer
vector 527  CAIN.ueD2DTx[15].nic.mac  receivedPacketFromLowerLayer:vector(packetBytes)  ETV
attr interpolationmode  none
attr source  receivedPacketFromLowerLayer
vector 538  CAIN.ueD2DTx[15].nic.mac  racpkt:vector  ETV
attr interpolationmode  none
attr title  "eNB received racpkt message, vector"
vector 539  CAIN.ueD2DTx[15].nic.mac  racDistanceSignal:vector  ETV
attr interpolationmode  none
attr title  "Rac distance to enb, vector"
vector 529  CAIN.ueD2DTx[15].nic.mac  sentPacketToLowerLayer:vector(packetBytes)  ETV
attr interpolationmode  none
attr source  sentPacketToLowerLayer
vector 963  CAIN.ueD2DTx[26].tcp  tcpRcvQueueBytes  ETV
vector 950  CAIN.ueD2DTx[26].tcp  "advertised window"  ETV
vector 949  CAIN.ueD2DTx[26].tcp  "receive window"  ETV
vector 952  CAIN.ueD2DTx[26].tcp  "sent ack"  ETV
vector 819  CAIN.ueD2DTx[26].nic.pdcpRrc  receivedPacketFromUpperLayer:vector(packetBytes)  ETV
attr interpolationmode  none
attr source  receivedPacketFromUpperLayer
vector 822  CAIN.ueD2DTx[26].nic.pdcpRrc  sentPacketToLowerLayer:vector(packetBytes)  ETV
attr interpolationmode  none
attr source  sentPacketToLowerLayer
vector 823  CAIN.ueD2DTx[26].nic.mac  receivedPacketFromUpperLayer:vector(packetBytes)  ETV
attr interpolationmode  none
attr source  receivedPacketFromUpperLayer
vector 826  CAIN.ueD2DTx[26].nic.mac  sentPacketToLowerLayer:vector(packetBytes)  ETV
attr interpolationmode  none
attr source  sentPacketToLowerLayer
vector 230  CAIN.ueD2DTx[4].nic.mac  receivedPacketFromLowerLayer:vector(packetBytes)  ETV
attr interpolationmode  none
attr source  receivedPacketFromLowerLayer
vector 203  CAIN.ueD2DTx[3].nic.mac  receivedPacketFromLowerLayer:vector(packetBytes)  ETV
attr interpolationmode  none
attr source  receivedPacketFromLowerLayer
vector 214  CAIN.ueD2DTx[3].nic.mac  racpkt:vector  ETV
attr interpolationmode  none
attr title  "eNB received racpkt message, vector"
vector 215  CAIN.ueD2DTx[3].nic.mac  racDistanceSignal:vector  ETV
attr interpolationmode  none
attr title  "Rac distance to enb, vector"
vector 205  CAIN.ueD2DTx[3].nic.mac  sentPacketToLowerLayer:vector(packetBytes)  ETV
attr interpolationmode  none
attr source  sentPacketToLowerLayer
vector 851  CAIN.ueD2DTx[27].nic.mac  receivedPacketFromLowerLayer:vector(packetBytes)  ETV
attr interpolationmode  none
attr source  receivedPacketFromLowerLayer
vector 862  CAIN.ueD2DTx[27].nic.mac  racpkt:vector  ETV
attr interpolationmode  none
attr title  "eNB received racpkt message, vector"
vector 863  CAIN.ueD2DTx[27].nic.mac  racDistanceSignal:vector  ETV
attr interpolationmode  none
attr title  "Rac distance to enb, vector"
vector 853  CAIN.ueD2DTx[27].nic.mac  sentPacketToLowerLayer:vector(packetBytes)  ETV
attr interpolationmode  none
attr source  sentPacketToLowerLayer
vector 878  CAIN.ueD2DTx[28].nic.mac  receivedPacketFromLowerLayer:vector(packetBytes)  ETV
attr interpolationmode  none
attr source  receivedPacketFromLowerLayer
vector 889  CAIN.ueD2DTx[28].nic.mac  racpkt:vector  ETV
attr interpolationmode  none
attr title  "eNB received racpkt message, vector"
vector 890  CAIN.ueD2DTx[28].nic.mac  racDistanceSignal:vector  ETV
attr interpolationmode  none
attr title  "Rac distance to enb, vector"
vector 880  CAIN.ueD2DTx[28].nic.mac  sentPacketToLowerLayer:vector(packetBytes)  ETV
attr interpolationmode  none
attr source  sentPacketToLowerLayer
vector 311  CAIN.ueD2DTx[7].nic.mac  receivedPacketFromLowerLayer:vector(packetBytes)  ETV
attr interpolationmode  none
attr source  receivedPacketFromLowerLayer
vector 322  CAIN.ueD2DTx[7].nic.mac  racpkt:vector  ETV
attr interpolationmode  none
attr title  "eNB received racpkt message, vector"
vector 323  CAIN.ueD2DTx[7].nic.mac  racDistanceSignal:vector  ETV
attr interpolationmode  none
attr title  "Rac distance to enb, vector"
vector 313  CAIN.ueD2DTx[7].nic.mac  sentPacketToLowerLayer:vector(packetBytes)  ETV
attr interpolationmode  none
attr source  sentPacketToLowerLayer
vector 392  CAIN.ueD2DTx[10].nic.mac  receivedPacketFromLowerLayer:vector(packetBytes)  ETV
attr interpolationmode  none
attr source  receivedPacketFromLowerLayer
vector 403  CAIN.ueD2DTx[10].nic.mac  racpkt:vector  ETV
attr interpolationmode  none
attr title  "eNB received racpkt message, vector"
vector 404  CAIN.ueD2DTx[10].nic.mac  racDistanceSignal:vector  ETV
attr interpolationmode  none
attr title  "Rac distance to enb, vector"
vector 394  CAIN.ueD2DTx[10].nic.mac  sentPacketToLowerLayer:vector(packetBytes)  ETV
attr interpolationmode  none
attr source  sentPacketToLowerLayer
vector 176  CAIN.ueD2DTx[2].nic.mac  receivedPacketFromLowerLayer:vector(packetBytes)  ETV
attr interpolationmode  none
attr source  receivedPacketFromLowerLayer
vector 187  CAIN.ueD2DTx[2].nic.mac  racpkt:vector  ETV
attr interpolationmode  none
attr title  "eNB received racpkt message, vector"
vector 188  CAIN.ueD2DTx[2].nic.mac  racDistanceSignal:vector  ETV
attr interpolationmode  none
attr title  "Rac distance to enb, vector"
vector 178  CAIN.ueD2DTx[2].nic.mac  sentPacketToLowerLayer:vector(packetBytes)  ETV
attr interpolationmode  none
attr source  sentPacketToLowerLayer
vector 797  CAIN.ueD2DTx[25].nic.mac  receivedPacketFromLowerLayer:vector(packetBytes)  ETV
attr interpolationmode  none
attr source  receivedPacketFromLowerLayer
vector 808  CAIN.ueD2DTx[25].nic.mac  racpkt:vector  ETV
attr interpolationmode  none
attr title  "eNB received racpkt message, vector"
vector 809  CAIN.ueD2DTx[25].nic.mac  racDistanceSignal:vector  ETV
attr interpolationmode  none
attr title  "Rac distance to enb, vector"
vector 799  CAIN.ueD2DTx[25].nic.mac  sentPacketToLowerLayer:vector(packetBytes)  ETV
attr interpolationmode  none
attr source  sentPacketToLowerLayer
vector 608  CAIN.ueD2DTx[18].nic.mac  receivedPacketFromLowerLayer:vector(packetBytes)  ETV
attr interpolationmode  none
attr source  receivedPacketFromLowerLayer
vector 619  CAIN.ueD2DTx[18].nic.mac  racpkt:vector  ETV
attr interpolationmode  none
attr title  "eNB received racpkt message, vector"
vector 620  CAIN.ueD2DTx[18].nic.mac  racDistanceSignal:vector  ETV
attr interpolationmode  none
attr title  "Rac distance to enb, vector"
vector 610  CAIN.ueD2DTx[18].nic.mac  sentPacketToLowerLayer:vector(packetBytes)  ETV
attr interpolationmode  none
attr source  sentPacketToLowerLayer
vector 689  CAIN.ueD2DTx[21].nic.mac  receivedPacketFromLowerLayer:vector(packetBytes)  ETV
attr interpolationmode  none
attr source  receivedPacketFromLowerLayer
vector 700  CAIN.ueD2DTx[21].nic.mac  racpkt:vector  ETV
attr interpolationmode  none
attr title  "eNB received racpkt message, vector"
vector 701  CAIN.ueD2DTx[21].nic.mac  racDistanceSignal:vector  ETV
attr interpolationmode  none
attr title  "Rac distance to enb, vector"
vector 691  CAIN.ueD2DTx[21].nic.mac  sentPacketToLowerLayer:vector(packetBytes)  ETV
attr interpolationmode  none
attr source  sentPacketToLowerLayer
vector 231  CAIN.ueD2DTx[4].nic.mac  sentPacketToUpperLayer:vector(packetBytes)  ETV
attr interpolationmode  none
attr source  sentPacketToUpperLayer
vector 257  CAIN.ueD2DTx[5].nic.mac  receivedPacketFromLowerLayer:vector(packetBytes)  ETV
attr interpolationmode  none
attr source  receivedPacketFromLowerLayer
vector 268  CAIN.ueD2DTx[5].nic.mac  racpkt:vector  ETV
attr interpolationmode  none
attr title  "eNB received racpkt message, vector"
vector 269  CAIN.ueD2DTx[5].nic.mac  racDistanceSignal:vector  ETV
attr interpolationmode  none
attr title  "Rac distance to enb, vector"
vector 259  CAIN.ueD2DTx[5].nic.mac  sentPacketToLowerLayer:vector(packetBytes)  ETV
attr interpolationmode  none
attr source  sentPacketToLowerLayer
vector 635  CAIN.ueD2DTx[19].nic.mac  receivedPacketFromLowerLayer:vector(packetBytes)  ETV
attr interpolationmode  none
attr source  receivedPacketFromLowerLayer
vector 646  CAIN.ueD2DTx[19].nic.mac  racpkt:vector  ETV
attr interpolationmode  none
attr title  "eNB received racpkt message, vector"
vector 647  CAIN.ueD2DTx[19].nic.mac  racDistanceSignal:vector  ETV
attr interpolationmode  none
attr title  "Rac distance to enb, vector"
vector 637  CAIN.ueD2DTx[19].nic.mac  sentPacketToLowerLayer:vector(packetBytes)  ETV
attr interpolationmode  none
attr source  sentPacketToLowerLayer
vector 419  CAIN.ueD2DTx[11].nic.mac  receivedPacketFromLowerLayer:vector(packetBytes)  ETV
attr interpolationmode  none
attr source  receivedPacketFromLowerLayer
vector 430  CAIN.ueD2DTx[11].nic.mac  racpkt:vector  ETV
attr interpolationmode  none
attr title  "eNB received racpkt message, vector"
vector 431  CAIN.ueD2DTx[11].nic.mac  racDistanceSignal:vector  ETV
attr interpolationmode  none
attr title  "Rac distance to enb, vector"
vector 421  CAIN.ueD2DTx[11].nic.mac  sentPacketToLowerLayer:vector(packetBytes)  ETV
attr interpolationmode  none
attr source  sentPacketToLowerLayer
vector 905  CAIN.ueD2DTx[29].nic.mac  receivedPacketFromLowerLayer:vector(packetBytes)  ETV
attr interpolationmode  none
attr source  receivedPacketFromLowerLayer
vector 916  CAIN.ueD2DTx[29].nic.mac  racpkt:vector  ETV
attr interpolationmode  none
attr title  "eNB received racpkt message, vector"
vector 917  CAIN.ueD2DTx[29].nic.mac  racDistanceSignal:vector  ETV
attr interpolationmode  none
attr title  "Rac distance to enb, vector"
vector 907  CAIN.ueD2DTx[29].nic.mac  sentPacketToLowerLayer:vector(packetBytes)  ETV
attr interpolationmode  none
attr source  sentPacketToLowerLayer
vector 338  CAIN.ueD2DTx[8].nic.mac  receivedPacketFromLowerLayer:vector(packetBytes)  ETV
attr interpolationmode  none
attr source  receivedPacketFromLowerLayer
vector 349  CAIN.ueD2DTx[8].nic.mac  racpkt:vector  ETV
attr interpolationmode  none
attr title  "eNB received racpkt message, vector"
vector 350  CAIN.ueD2DTx[8].nic.mac  racDistanceSignal:vector  ETV
attr interpolationmode  none
attr title  "Rac distance to enb, vector"
vector 340  CAIN.ueD2DTx[8].nic.mac  sentPacketToLowerLayer:vector(packetBytes)  ETV
attr interpolationmode  none
attr source  sentPacketToLowerLayer
vector 473  CAIN.ueD2DTx[13].nic.mac  receivedPacketFromLowerLayer:vector(packetBytes)  ETV
attr interpolationmode  none
attr source  receivedPacketFromLowerLayer
vector 484  CAIN.ueD2DTx[13].nic.mac  racpkt:vector  ETV
attr interpolationmode  none
attr title  "eNB received racpkt message, vector"
vector 485  CAIN.ueD2DTx[13].nic.mac  racDistanceSignal:vector  ETV
attr interpolationmode  none
attr title  "Rac distance to enb, vector"
vector 475  CAIN.ueD2DTx[13].nic.mac  sentPacketToLowerLayer:vector(packetBytes)  ETV
attr interpolationmode  none
attr source  sentPacketToLowerLayer
vector 824  CAIN.ueD2DTx[26].nic.mac  receivedPacketFromLowerLayer:vector(packetBytes)  ETV
attr interpolationmode  none
attr source  receivedPacketFromLowerLayer
vector 835  CAIN.ueD2DTx[26].nic.mac  racpkt:vector  ETV
attr interpolationmode  none
attr title  "eNB received racpkt message, vector"
vector 836  CAIN.ueD2DTx[26].nic.mac  racDistanceSignal:vector  ETV
attr interpolationmode  none
attr title  "Rac distance to enb, vector"
vector 770  CAIN.ueD2DTx[24].nic.mac  receivedPacketFromLowerLayer:vector(packetBytes)  ETV
attr interpolationmode  none
attr source  receivedPacketFromLowerLayer
vector 781  CAIN.ueD2DTx[24].nic.mac  racpkt:vector  ETV
attr interpolationmode  none
attr title  "eNB received racpkt message, vector"
vector 782  CAIN.ueD2DTx[24].nic.mac  racDistanceSignal:vector  ETV
attr interpolationmode  none
attr title  "Rac distance to enb, vector"
vector 772  CAIN.ueD2DTx[24].nic.mac  sentPacketToLowerLayer:vector(packetBytes)  ETV
attr interpolationmode  none
attr source  sentPacketToLowerLayer
vector 122  CAIN.ueD2DTx[0].nic.mac  receivedPacketFromLowerLayer:vector(packetBytes)  ETV
attr interpolationmode  none
attr source  receivedPacketFromLowerLayer
vector 133  CAIN.ueD2DTx[0].nic.mac  racpkt:vector  ETV
attr interpolationmode  none
attr title  "eNB received racpkt message, vector"
vector 134  CAIN.ueD2DTx[0].nic.mac  racDistanceSignal:vector  ETV
attr interpolationmode  none
attr title  "Rac distance to enb, vector"
vector 124  CAIN.ueD2DTx[0].nic.mac  sentPacketToLowerLayer:vector(packetBytes)  ETV
attr interpolationmode  none
attr source  sentPacketToLowerLayer
vector 662  CAIN.ueD2DTx[20].nic.mac  receivedPacketFromLowerLayer:vector(packetBytes)  ETV
attr interpolationmode  none
attr source  receivedPacketFromLowerLayer
vector 673  CAIN.ueD2DTx[20].nic.mac  racpkt:vector  ETV
attr interpolationmode  none
attr title  "eNB received racpkt message, vector"
vector 674  CAIN.ueD2DTx[20].nic.mac  racDistanceSignal:vector  ETV
attr interpolationmode  none
attr title  "Rac distance to enb, vector"
vector 664  CAIN.ueD2DTx[20].nic.mac  sentPacketToLowerLayer:vector(packetBytes)  ETV
attr interpolationmode  none
attr source  sentPacketToLowerLayer
vector 241  CAIN.ueD2DTx[4].nic.mac  racpkt:vector  ETV
attr interpolationmode  none
attr title  "eNB received racpkt message, vector"
vector 242  CAIN.ueD2DTx[4].nic.mac  racDistanceSignal:vector  ETV
attr interpolationmode  none
attr title  "Rac distance to enb, vector"
vector 743  CAIN.ueD2DTx[23].nic.mac  receivedPacketFromLowerLayer:vector(packetBytes)  ETV
attr interpolationmode  none
attr source  receivedPacketFromLowerLayer
vector 754  CAIN.ueD2DTx[23].nic.mac  racpkt:vector  ETV
attr interpolationmode  none
attr title  "eNB received racpkt message, vector"
vector 755  CAIN.ueD2DTx[23].nic.mac  racDistanceSignal:vector  ETV
attr interpolationmode  none
attr title  "Rac distance to enb, vector"
vector 745  CAIN.ueD2DTx[23].nic.mac  sentPacketToLowerLayer:vector(packetBytes)  ETV
attr interpolationmode  none
attr source  sentPacketToLowerLayer
vector 716  CAIN.ueD2DTx[22].nic.mac  receivedPacketFromLowerLayer:vector(packetBytes)  ETV
attr interpolationmode  none
attr source  receivedPacketFromLowerLayer
vector 727  CAIN.ueD2DTx[22].nic.mac  racpkt:vector  ETV
attr interpolationmode  none
attr title  "eNB received racpkt message, vector"
vector 728  CAIN.ueD2DTx[22].nic.mac  racDistanceSignal:vector  ETV
attr interpolationmode  none
attr title  "Rac distance to enb, vector"
vector 718  CAIN.ueD2DTx[22].nic.mac  sentPacketToLowerLayer:vector(packetBytes)  ETV
attr interpolationmode  none
attr source  sentPacketToLowerLayer
vector 284  CAIN.ueD2DTx[6].nic.mac  receivedPacketFromLowerLayer:vector(packetBytes)  ETV
attr interpolationmode  none
attr source  receivedPacketFromLowerLayer
vector 295  CAIN.ueD2DTx[6].nic.mac  racpkt:vector  ETV
attr interpolationmode  none
attr title  "eNB received racpkt message, vector"
vector 296  CAIN.ueD2DTx[6].nic.mac  racDistanceSignal:vector  ETV
attr interpolationmode  none
attr title  "Rac distance to enb, vector"
vector 286  CAIN.ueD2DTx[6].nic.mac  sentPacketToLowerLayer:vector(packetBytes)  ETV
attr interpolationmode  none
attr source  sentPacketToLowerLayer
vector 554  CAIN.ueD2DTx[16].nic.mac  receivedPacketFromLowerLayer:vector(packetBytes)  ETV
attr interpolationmode  none
attr source  receivedPacketFromLowerLayer
vector 565  CAIN.ueD2DTx[16].nic.mac  racpkt:vector  ETV
attr interpolationmode  none
attr title  "eNB received racpkt message, vector"
vector 566  CAIN.ueD2DTx[16].nic.mac  racDistanceSignal:vector  ETV
attr interpolationmode  none
attr title  "Rac distance to enb, vector"
vector 556  CAIN.ueD2DTx[16].nic.mac  sentPacketToLowerLayer:vector(packetBytes)  ETV
attr interpolationmode  none
attr source  sentPacketToLowerLayer
vector 581  CAIN.ueD2DTx[17].nic.mac  receivedPacketFromLowerLayer:vector(packetBytes)  ETV
attr interpolationmode  none
attr source  receivedPacketFromLowerLayer
vector 592  CAIN.ueD2DTx[17].nic.mac  racpkt:vector  ETV
attr interpolationmode  none
attr title  "eNB received racpkt message, vector"
vector 593  CAIN.ueD2DTx[17].nic.mac  racDistanceSignal:vector  ETV
attr interpolationmode  none
attr title  "Rac distance to enb, vector"
vector 583  CAIN.ueD2DTx[17].nic.mac  sentPacketToLowerLayer:vector(packetBytes)  ETV
attr interpolationmode  none
attr source  sentPacketToLowerLayer
vector 987  CAIN.ueD2DTx[22].tcp  tcpRcvQueueBytes  ETV
vector 974  CAIN.ueD2DTx[22].tcp  "advertised window"  ETV
vector 973  CAIN.ueD2DTx[22].tcp  "receive window"  ETV
vector 976  CAIN.ueD2DTx[22].tcp  "sent ack"  ETV
vector 711  CAIN.ueD2DTx[22].nic.pdcpRrc  receivedPacketFromUpperLayer:vector(packetBytes)  ETV
attr interpolationmode  none
attr source  receivedPacketFromUpperLayer
vector 714  CAIN.ueD2DTx[22].nic.pdcpRrc  sentPacketToLowerLayer:vector(packetBytes)  ETV
attr interpolationmode  none
attr source  sentPacketToLowerLayer
vector 715  CAIN.ueD2DTx[22].nic.mac  receivedPacketFromUpperLayer:vector(packetBytes)  ETV
attr interpolationmode  none
attr source  receivedPacketFromUpperLayer
vector 99  CAIN.eNodeB.nic.phy  averageCqiUlvect:vector  ETV
attr source  averageCqiUlvect
attr title  "Average Cqi reported in UL, vector"
attr unit  cqi
vector 93  CAIN.eNodeB.nic.mac  ServedDevs:vector  ETV
attr interpolationmode  none
attr title  "# of devices served on cain forwarding, vector"
vector 91  CAIN.eNodeB.nic.mac  DistanceSignal:vector  ETV
attr interpolationmode  none
attr title  "Distance to enb, vector"
vector 89  CAIN.eNodeB.nic.mac  CainMessage:vector  ETV
attr interpolationmode  none
attr title  "eNB received CAIN message, vector"
vector 825  CAIN.ueD2DTx[26].nic.mac  sentPacketToUpperLayer:vector(packetBytes)  ETV
attr interpolationmode  none
attr source  sentPacketToUpperLayer
vector 92  CAIN.eNodeB.nic.mac  HopDistanceSignal:vector  ETV
attr interpolationmode  none
attr title  "Distance to enb with hop forwarding, vector"
vector 90  CAIN.eNodeB.nic.mac  CainHopMessage:vector  ETV
attr interpolationmode  none
attr title  "eNB received CAIN hop message, vector"
vector 1011  CAIN.ueD2DTx[20].tcp  tcpRcvQueueBytes  ETV
vector 998  CAIN.ueD2DTx[20].tcp  "advertised window"  ETV
vector 997  CAIN.ueD2DTx[20].tcp  "receive window"  ETV
vector 1000  CAIN.ueD2DTx[20].tcp  "sent ack"  ETV
vector 657  CAIN.ueD2DTx[20].nic.pdcpRrc  receivedPacketFromUpperLayer:vector(packetBytes)  ETV
attr interpolationmode  none
attr source  receivedPacketFromUpperLayer
vector 660  CAIN.ueD2DTx[20].nic.pdcpRrc  sentPacketToLowerLayer:vector(packetBytes)  ETV
attr interpolationmode  none
attr source  sentPacketToLowerLayer
vector 661  CAIN.ueD2DTx[20].nic.mac  receivedPacketFromUpperLayer:vector(packetBytes)  ETV
attr interpolationmode  none
attr source  receivedPacketFromUpperLayer
vector 86  CAIN.eNodeB.nic.mac  sentPacketToUpperLayer:vector(packetBytes)  ETV
attr interpolationmode  none
attr source  sentPacketToUpperLayer
vector 81  CAIN.eNodeB.nic.pdcpRrc  receivedPacketFromLowerLayer:vector(packetBytes)  ETV
attr interpolationmode  none
attr source  receivedPacketFromLowerLayer
vector 82  CAIN.eNodeB.nic.pdcpRrc  sentPacketToUpperLayer:vector(packetBytes)  ETV
attr interpolationmode  none
attr source  sentPacketToUpperLayer
vector 80  CAIN.eNodeB.nic.pdcpRrc  receivedPacketFromUpperLayer:vector(packetBytes)  ETV
attr interpolationmode  none
attr source  receivedPacketFromUpperLayer
vector 83  CAIN.eNodeB.nic.pdcpRrc  sentPacketToLowerLayer:vector(packetBytes)  ETV
attr interpolationmode  none
attr source  sentPacketToLowerLayer
vector 84  CAIN.eNodeB.nic.mac  receivedPacketFromUpperLayer:vector(packetBytes)  ETV
attr interpolationmode  none
attr source  receivedPacketFromUpperLayer
vector 1035  CAIN.ueD2DTx[21].tcp  tcpRcvQueueBytes  ETV
vector 1022  CAIN.ueD2DTx[21].tcp  "advertised window"  ETV
vector 1021  CAIN.ueD2DTx[21].tcp  "receive window"  ETV
vector 1024  CAIN.ueD2DTx[21].tcp  "sent ack"  ETV
vector 684  CAIN.ueD2DTx[21].nic.pdcpRrc  receivedPacketFromUpperLayer:vector(packetBytes)  ETV
attr interpolationmode  none
attr source  receivedPacketFromUpperLayer
vector 687  CAIN.ueD2DTx[21].nic.pdcpRrc  sentPacketToLowerLayer:vector(packetBytes)  ETV
attr interpolationmode  none
attr source  sentPacketToLowerLayer
vector 688  CAIN.ueD2DTx[21].nic.mac  receivedPacketFromUpperLayer:vector(packetBytes)  ETV
attr interpolationmode  none
attr source  receivedPacketFromUpperLayer
vector 1059  CAIN.ueD2DTx[7].tcp  tcpRcvQueueBytes  ETV
vector 1046  CAIN.ueD2DTx[7].tcp  "advertised window"  ETV
vector 1045  CAIN.ueD2DTx[7].tcp  "receive window"  ETV
vector 1048  CAIN.ueD2DTx[7].tcp  "sent ack"  ETV
vector 306  CAIN.ueD2DTx[7].nic.pdcpRrc  receivedPacketFromUpperLayer:vector(packetBytes)  ETV
attr interpolationmode  none
attr source  receivedPacketFromUpperLayer
vector 309  CAIN.ueD2DTx[7].nic.pdcpRrc  sentPacketToLowerLayer:vector(packetBytes)  ETV
attr interpolationmode  none
attr source  sentPacketToLowerLayer
vector 310  CAIN.ueD2DTx[7].nic.mac  receivedPacketFromUpperLayer:vector(packetBytes)  ETV
attr interpolationmode  none
attr source  receivedPacketFromUpperLayer
vector 88  CAIN.eNodeB.nic.mac  measuredItbs:vector  ETV
attr source  measuredItbs
attr title  "TBS index, vector"
attr unit  ""
vector 717  CAIN.ueD2DTx[22].nic.mac  sentPacketToUpperLayer:vector(packetBytes)  ETV
attr interpolationmode  none
attr source  sentPacketToUpperLayer
vector 135  CAIN.ueD2DTx[0].nic.phy  averageCqiDlvect:vector  ETV
attr source  averageCqiDlvect
attr title  "Average Cqi reported in DL, vector"
attr unit  cqi
vector 1083  CAIN.ueD2DTx[17].tcp  tcpRcvQueueBytes  ETV
vector 1070  CAIN.ueD2DTx[17].tcp  "advertised window"  ETV
vector 1069  CAIN.ueD2DTx[17].tcp  "receive window"  ETV
vector 1072  CAIN.ueD2DTx[17].tcp  "sent ack"  ETV
vector 576  CAIN.ueD2DTx[17].nic.pdcpRrc  receivedPacketFromUpperLayer:vector(packetBytes)  ETV
attr interpolationmode  none
attr source  receivedPacketFromUpperLayer
vector 579  CAIN.ueD2DTx[17].nic.pdcpRrc  sentPacketToLowerLayer:vector(packetBytes)  ETV
attr interpolationmode  none
attr source  sentPacketToLowerLayer
vector 580  CAIN.ueD2DTx[17].nic.mac  receivedPacketFromUpperLayer:vector(packetBytes)  ETV
attr interpolationmode  none
attr source  receivedPacketFromUpperLayer
vector 663  CAIN.ueD2DTx[20].nic.mac  sentPacketToUpperLayer:vector(packetBytes)  ETV
attr interpolationmode  none
attr source  sentPacketToUpperLayer
vector 123  CAIN.ueD2DTx[0].nic.mac  sentPacketToUpperLayer:vector(packetBytes)  ETV
attr interpolationmode  none
attr source  sentPacketToUpperLayer
vector 118  CAIN.ueD2DTx[0].nic.pdcpRrc  receivedPacketFromLowerLayer:vector(packetBytes)  ETV
attr interpolationmode  none
attr source  receivedPacketFromLowerLayer
vector 119  CAIN.ueD2DTx[0].nic.pdcpRrc  sentPacketToUpperLayer:vector(packetBytes)  ETV
attr interpolationmode  none
attr source  sentPacketToUpperLayer
vector 312  CAIN.ueD2DTx[7].nic.mac  sentPacketToUpperLayer:vector(packetBytes)  ETV
attr interpolationmode  none
attr source  sentPacketToUpperLayer
vector 690  CAIN.ueD2DTx[21].nic.mac  sentPacketToUpperLayer:vector(packetBytes)  ETV
attr interpolationmode  none
attr source  sentPacketToUpperLayer
vector 1107  CAIN.ueD2DTx[5].tcp  tcpRcvQueueBytes  ETV
vector 1094  CAIN.ueD2DTx[5].tcp  "advertised window"  ETV
vector 1093  CAIN.ueD2DTx[5].tcp  "receive window"  ETV
vector 1096  CAIN.ueD2DTx[5].tcp  "sent ack"  ETV
vector 252  CAIN.ueD2DTx[5].nic.pdcpRrc  receivedPacketFromUpperLayer:vector(packetBytes)  ETV
attr interpolationmode  none
attr source  receivedPacketFromUpperLayer
vector 255  CAIN.ueD2DTx[5].nic.pdcpRrc  sentPacketToLowerLayer:vector(packetBytes)  ETV
attr interpolationmode  none
attr source  sentPacketToLowerLayer
vector 256  CAIN.ueD2DTx[5].nic.mac  receivedPacketFromUpperLayer:vector(packetBytes)  ETV
attr interpolationmode  none
attr source  receivedPacketFromUpperLayer
vector 582  CAIN.ueD2DTx[17].nic.mac  sentPacketToUpperLayer:vector(packetBytes)  ETV
attr interpolationmode  none
attr source  sentPacketToUpperLayer
vector 1131  CAIN.ueD2DTx[8].tcp  tcpRcvQueueBytes  ETV
vector 1118  CAIN.ueD2DTx[8].tcp  "advertised window"  ETV
vector 1117  CAIN.ueD2DTx[8].tcp  "receive window"  ETV
vector 1120  CAIN.ueD2DTx[8].tcp  "sent ack"  ETV
vector 333  CAIN.ueD2DTx[8].nic.pdcpRrc  receivedPacketFromUpperLayer:vector(packetBytes)  ETV
attr interpolationmode  none
attr source  receivedPacketFromUpperLayer
vector 336  CAIN.ueD2DTx[8].nic.pdcpRrc  sentPacketToLowerLayer:vector(packetBytes)  ETV
attr interpolationmode  none
attr source  sentPacketToLowerLayer
vector 337  CAIN.ueD2DTx[8].nic.mac  receivedPacketFromUpperLayer:vector(packetBytes)  ETV
attr interpolationmode  none
attr source  receivedPacketFromUpperLayer
vector 258  CAIN.ueD2DTx[5].nic.mac  sentPacketToUpperLayer:vector(packetBytes)  ETV
attr interpolationmode  none
attr source  sentPacketToUpperLayer
vector 1155  CAIN.ueD2DTx[12].tcp  tcpRcvQueueBytes  ETV
vector 1142  CAIN.ueD2DTx[12].tcp  "advertised window"  ETV
vector 1141  CAIN.ueD2DTx[12].tcp  "receive window"  ETV
vector 1144  CAIN.ueD2DTx[12].tcp  "sent ack"  ETV
vector 441  CAIN.ueD2DTx[12].nic.pdcpRrc  receivedPacketFromUpperLayer:vector(packetBytes)  ETV
attr interpolationmode  none
attr source  receivedPacketFromUpperLayer
vector 444  CAIN.ueD2DTx[12].nic.pdcpRrc  sentPacketToLowerLayer:vector(packetBytes)  ETV
attr interpolationmode  none
attr source  sentPacketToLowerLayer
vector 445  CAIN.ueD2DTx[12].nic.mac  receivedPacketFromUpperLayer:vector(packetBytes)  ETV
attr interpolationmode  none
attr source  receivedPacketFromUpperLayer
vector 378  CAIN.ueD2DTx[9].nic.phy  averageCqiDlvect:vector  ETV
attr source  averageCqiDlvect
attr title  "Average Cqi reported in DL, vector"
attr unit  cqi
vector 540  CAIN.ueD2DTx[15].nic.phy  averageCqiDlvect:vector  ETV
attr source  averageCqiDlvect
attr title  "Average Cqi reported in DL, vector"
attr unit  cqi
vector 1179  CAIN.ueD2DTx[23].tcp  tcpRcvQueueBytes  ETV
vector 1166  CAIN.ueD2DTx[23].tcp  "advertised window"  ETV
vector 1165  CAIN.ueD2DTx[23].tcp  "receive window"  ETV
vector 1168  CAIN.ueD2DTx[23].tcp  "sent ack"  ETV
vector 738  CAIN.ueD2DTx[23].nic.pdcpRrc  receivedPacketFromUpperLayer:vector(packetBytes)  ETV
attr interpolationmode  none
attr source  receivedPacketFromUpperLayer
vector 741  CAIN.ueD2DTx[23].nic.pdcpRrc  sentPacketToLowerLayer:vector(packetBytes)  ETV
attr interpolationmode  none
attr source  sentPacketToLowerLayer
vector 742  CAIN.ueD2DTx[23].nic.mac  receivedPacketFromUpperLayer:vector(packetBytes)  ETV
attr interpolationmode  none
attr source  receivedPacketFromUpperLayer
vector 339  CAIN.ueD2DTx[8].nic.mac  sentPacketToUpperLayer:vector(packetBytes)  ETV
attr interpolationmode  none
attr source  sentPacketToUpperLayer
vector 366  CAIN.ueD2DTx[9].nic.mac  sentPacketToUpperLayer:vector(packetBytes)  ETV
attr interpolationmode  none
attr source  sentPacketToUpperLayer
vector 361  CAIN.ueD2DTx[9].nic.pdcpRrc  receivedPacketFromLowerLayer:vector(packetBytes)  ETV
attr interpolationmode  none
attr source  receivedPacketFromLowerLayer
vector 362  CAIN.ueD2DTx[9].nic.pdcpRrc  sentPacketToUpperLayer:vector(packetBytes)  ETV
attr interpolationmode  none
attr source  sentPacketToUpperLayer
vector 528  CAIN.ueD2DTx[15].nic.mac  sentPacketToUpperLayer:vector(packetBytes)  ETV
attr interpolationmode  none
attr source  sentPacketToUpperLayer
vector 523  CAIN.ueD2DTx[15].nic.pdcpRrc  receivedPacketFromLowerLayer:vector(packetBytes)  ETV
attr interpolationmode  none
attr source  receivedPacketFromLowerLayer
vector 524  CAIN.ueD2DTx[15].nic.pdcpRrc  sentPacketToUpperLayer:vector(packetBytes)  ETV
attr interpolationmode  none
attr source  sentPacketToUpperLayer
vector 447  CAIN.ueD2DTx[12].nic.mac  sentPacketToUpperLayer:vector(packetBytes)  ETV
attr interpolationmode  none
attr source  sentPacketToUpperLayer
vector 1203  CAIN.ueD2DTx[25].tcp  tcpRcvQueueBytes  ETV
vector 1190  CAIN.ueD2DTx[25].tcp  "advertised window"  ETV
vector 1189  CAIN.ueD2DTx[25].tcp  "receive window"  ETV
vector 1192  CAIN.ueD2DTx[25].tcp  "sent ack"  ETV
vector 792  CAIN.ueD2DTx[25].nic.pdcpRrc  receivedPacketFromUpperLayer:vector(packetBytes)  ETV
attr interpolationmode  none
attr source  receivedPacketFromUpperLayer
vector 795  CAIN.ueD2DTx[25].nic.pdcpRrc  sentPacketToLowerLayer:vector(packetBytes)  ETV
attr interpolationmode  none
attr source  sentPacketToLowerLayer
vector 796  CAIN.ueD2DTx[25].nic.mac  receivedPacketFromUpperLayer:vector(packetBytes)  ETV
attr interpolationmode  none
attr source  receivedPacketFromUpperLayer
vector 744  CAIN.ueD2DTx[23].nic.mac  sentPacketToUpperLayer:vector(packetBytes)  ETV
attr interpolationmode  none
attr source  sentPacketToUpperLayer
vector 1227  CAIN.ueD2DTx[0].tcp  tcpRcvQueueBytes  ETV
vector 1214  CAIN.ueD2DTx[0].tcp  "advertised window"  ETV
vector 1213  CAIN.ueD2DTx[0].tcp  "receive window"  ETV
vector 1216  CAIN.ueD2DTx[0].tcp  "sent ack"  ETV
vector 117  CAIN.ueD2DTx[0].nic.pdcpRrc  receivedPacketFromUpperLayer:vector(packetBytes)  ETV
attr interpolationmode  none
attr source  receivedPacketFromUpperLayer
vector 120  CAIN.ueD2DTx[0].nic.pdcpRrc  sentPacketToLowerLayer:vector(packetBytes)  ETV
attr interpolationmode  none
attr source  sentPacketToLowerLayer
vector 121  CAIN.ueD2DTx[0].nic.mac  receivedPacketFromUpperLayer:vector(packetBytes)  ETV
attr interpolationmode  none
attr source  receivedPacketFromUpperLayer
vector 1251  CAIN.ueD2DTx[2].tcp  tcpRcvQueueBytes  ETV
vector 1238  CAIN.ueD2DTx[2].tcp  "advertised window"  ETV
vector 1237  CAIN.ueD2DTx[2].tcp  "receive window"  ETV
vector 1240  CAIN.ueD2DTx[2].tcp  "sent ack"  ETV
vector 171  CAIN.ueD2DTx[2].nic.pdcpRrc  receivedPacketFromUpperLayer:vector(packetBytes)  ETV
attr interpolationmode  none
attr source  receivedPacketFromUpperLayer
vector 174  CAIN.ueD2DTx[2].nic.pdcpRrc  sentPacketToLowerLayer:vector(packetBytes)  ETV
attr interpolationmode  none
attr source  sentPacketToLowerLayer
vector 175  CAIN.ueD2DTx[2].nic.mac  receivedPacketFromUpperLayer:vector(packetBytes)  ETV
attr interpolationmode  none
attr source  receivedPacketFromUpperLayer
vector 1275  CAIN.ueD2DTx[9].tcp  tcpRcvQueueBytes  ETV
vector 1262  CAIN.ueD2DTx[9].tcp  "advertised window"  ETV
vector 1261  CAIN.ueD2DTx[9].tcp  "receive window"  ETV
vector 1264  CAIN.ueD2DTx[9].tcp  "sent ack"  ETV
vector 360  CAIN.ueD2DTx[9].nic.pdcpRrc  receivedPacketFromUpperLayer:vector(packetBytes)  ETV
attr interpolationmode  none
attr source  receivedPacketFromUpperLayer
vector 363  CAIN.ueD2DTx[9].nic.pdcpRrc  sentPacketToLowerLayer:vector(packetBytes)  ETV
attr interpolationmode  none
attr source  sentPacketToLowerLayer
vector 364  CAIN.ueD2DTx[9].nic.mac  receivedPacketFromUpperLayer:vector(packetBytes)  ETV
attr interpolationmode  none
attr source  receivedPacketFromUpperLayer
vector 798  CAIN.ueD2DTx[25].nic.mac  sentPacketToUpperLayer:vector(packetBytes)  ETV
attr interpolationmode  none
attr source  sentPacketToUpperLayer
vector 891  CAIN.ueD2DTx[28].nic.phy  averageCqiDlvect:vector  ETV
attr source  averageCqiDlvect
attr title  "Average Cqi reported in DL, vector"
attr unit  cqi
vector 1299  CAIN.ueD2DTx[11].tcp  tcpRcvQueueBytes  ETV
vector 1286  CAIN.ueD2DTx[11].tcp  "advertised window"  ETV
vector 1285  CAIN.ueD2DTx[11].tcp  "receive window"  ETV
vector 1288  CAIN.ueD2DTx[11].tcp  "sent ack"  ETV
vector 414  CAIN.ueD2DTx[11].nic.pdcpRrc  receivedPacketFromUpperLayer:vector(packetBytes)  ETV
attr interpolationmode  none
attr source  receivedPacketFromUpperLayer
vector 417  CAIN.ueD2DTx[11].nic.pdcpRrc  sentPacketToLowerLayer:vector(packetBytes)  ETV
attr interpolationmode  none
attr source  sentPacketToLowerLayer
vector 418  CAIN.ueD2DTx[11].nic.mac  receivedPacketFromUpperLayer:vector(packetBytes)  ETV
attr interpolationmode  none
attr source  receivedPacketFromUpperLayer
vector 1323  CAIN.ueD2DTx[29].tcp  tcpRcvQueueBytes  ETV
vector 1310  CAIN.ueD2DTx[29].tcp  "advertised window"  ETV
vector 1309  CAIN.ueD2DTx[29].tcp  "receive window"  ETV
vector 1312  CAIN.ueD2DTx[29].tcp  "sent ack"  ETV
vector 900  CAIN.ueD2DTx[29].nic.pdcpRrc  receivedPacketFromUpperLayer:vector(packetBytes)  ETV
attr interpolationmode  none
attr source  receivedPacketFromUpperLayer
vector 903  CAIN.ueD2DTx[29].nic.pdcpRrc  sentPacketToLowerLayer:vector(packetBytes)  ETV
attr interpolationmode  none
attr source  sentPacketToLowerLayer
vector 904  CAIN.ueD2DTx[29].nic.mac  receivedPacketFromUpperLayer:vector(packetBytes)  ETV
attr interpolationmode  none
attr source  receivedPacketFromUpperLayer
vector 177  CAIN.ueD2DTx[2].nic.mac  sentPacketToUpperLayer:vector(packetBytes)  ETV
attr interpolationmode  none
attr source  sentPacketToUpperLayer
vector 879  CAIN.ueD2DTx[28].nic.mac  sentPacketToUpperLayer:vector(packetBytes)  ETV
attr interpolationmode  none
attr source  sentPacketToUpperLayer
vector 874  CAIN.ueD2DTx[28].nic.pdcpRrc  receivedPacketFromLowerLayer:vector(packetBytes)  ETV
attr interpolationmode  none
attr source  receivedPacketFromLowerLayer
vector 875  CAIN.ueD2DTx[28].nic.pdcpRrc  sentPacketToUpperLayer:vector(packetBytes)  ETV
attr interpolationmode  none
attr source  sentPacketToUpperLayer
vector 420  CAIN.ueD2DTx[11].nic.mac  sentPacketToUpperLayer:vector(packetBytes)  ETV
attr interpolationmode  none
attr source  sentPacketToUpperLayer
vector 459  CAIN.ueD2DTx[12].nic.phy  averageCqiDlvect:vector  ETV
attr source  averageCqiDlvect
attr title  "Average Cqi reported in DL, vector"
attr unit  cqi
vector 906  CAIN.ueD2DTx[29].nic.mac  sentPacketToUpperLayer:vector(packetBytes)  ETV
attr interpolationmode  none
attr source  sentPacketToUpperLayer
vector 442  CAIN.ueD2DTx[12].nic.pdcpRrc  receivedPacketFromLowerLayer:vector(packetBytes)  ETV
attr interpolationmode  none
attr source  receivedPacketFromLowerLayer
vector 443  CAIN.ueD2DTx[12].nic.pdcpRrc  sentPacketToUpperLayer:vector(packetBytes)  ETV
attr interpolationmode  none
attr source  sentPacketToUpperLayer
vector 1347  CAIN.ueD2DTx[13].tcp  tcpRcvQueueBytes  ETV
vector 1334  CAIN.ueD2DTx[13].tcp  "advertised window"  ETV
vector 1333  CAIN.ueD2DTx[13].tcp  "receive window"  ETV
vector 1336  CAIN.ueD2DTx[13].tcp  "sent ack"  ETV
vector 468  CAIN.ueD2DTx[13].nic.pdcpRrc  receivedPacketFromUpperLayer:vector(packetBytes)  ETV
attr interpolationmode  none
attr source  receivedPacketFromUpperLayer
vector 471  CAIN.ueD2DTx[13].nic.pdcpRrc  sentPacketToLowerLayer:vector(packetBytes)  ETV
attr interpolationmode  none
attr source  sentPacketToLowerLayer
vector 472  CAIN.ueD2DTx[13].nic.mac  receivedPacketFromUpperLayer:vector(packetBytes)  ETV
attr interpolationmode  none
attr source  receivedPacketFromUpperLayer
vector 324  CAIN.ueD2DTx[7].nic.phy  averageCqiDlvect:vector  ETV
attr source  averageCqiDlvect
attr title  "Average Cqi reported in DL, vector"
attr unit  cqi
vector 307  CAIN.ueD2DTx[7].nic.pdcpRrc  receivedPacketFromLowerLayer:vector(packetBytes)  ETV
attr interpolationmode  none
attr source  receivedPacketFromLowerLayer
vector 308  CAIN.ueD2DTx[7].nic.pdcpRrc  sentPacketToUpperLayer:vector(packetBytes)  ETV
attr interpolationmode  none
attr source  sentPacketToUpperLayer
vector 1371  CAIN.ueD2DTx[14].tcp  tcpRcvQueueBytes  ETV
vector 1358  CAIN.ueD2DTx[14].tcp  "advertised window"  ETV
vector 1357  CAIN.ueD2DTx[14].tcp  "receive window"  ETV
vector 1360  CAIN.ueD2DTx[14].tcp  "sent ack"  ETV
vector 495  CAIN.ueD2DTx[14].nic.pdcpRrc  receivedPacketFromUpperLayer:vector(packetBytes)  ETV
attr interpolationmode  none
attr source  receivedPacketFromUpperLayer
vector 498  CAIN.ueD2DTx[14].nic.pdcpRrc  sentPacketToLowerLayer:vector(packetBytes)  ETV
attr interpolationmode  none
attr source  sentPacketToLowerLayer
vector 499  CAIN.ueD2DTx[14].nic.mac  receivedPacketFromUpperLayer:vector(packetBytes)  ETV
attr interpolationmode  none
attr source  receivedPacketFromUpperLayer
vector 474  CAIN.ueD2DTx[13].nic.mac  sentPacketToUpperLayer:vector(packetBytes)  ETV
attr interpolationmode  none
attr source  sentPacketToUpperLayer
vector 501  CAIN.ueD2DTx[14].nic.mac  sentPacketToUpperLayer:vector(packetBytes)  ETV
attr interpolationmode  none
attr source  sentPacketToUpperLayer
vector 1395  CAIN.ueD2DTx[10].tcp  tcpRcvQueueBytes  ETV
vector 1382  CAIN.ueD2DTx[10].tcp  "advertised window"  ETV
vector 1381  CAIN.ueD2DTx[10].tcp  "receive window"  ETV
vector 1384  CAIN.ueD2DTx[10].tcp  "sent ack"  ETV
vector 387  CAIN.ueD2DTx[10].nic.pdcpRrc  receivedPacketFromUpperLayer:vector(packetBytes)  ETV
attr interpolationmode  none
attr source  receivedPacketFromUpperLayer
vector 390  CAIN.ueD2DTx[10].nic.pdcpRrc  sentPacketToLowerLayer:vector(packetBytes)  ETV
attr interpolationmode  none
attr source  sentPacketToLowerLayer
vector 391  CAIN.ueD2DTx[10].nic.mac  receivedPacketFromUpperLayer:vector(packetBytes)  ETV
attr interpolationmode  none
attr source  receivedPacketFromUpperLayer
vector 1419  CAIN.ueD2DTx[27].tcp  tcpRcvQueueBytes  ETV
vector 1406  CAIN.ueD2DTx[27].tcp  "advertised window"  ETV
vector 1405  CAIN.ueD2DTx[27].tcp  "receive window"  ETV
vector 1408  CAIN.ueD2DTx[27].tcp  "sent ack"  ETV
vector 846  CAIN.ueD2DTx[27].nic.pdcpRrc  receivedPacketFromUpperLayer:vector(packetBytes)  ETV
attr interpolationmode  none
attr source  receivedPacketFromUpperLayer
vector 849  CAIN.ueD2DTx[27].nic.pdcpRrc  sentPacketToLowerLayer:vector(packetBytes)  ETV
attr interpolationmode  none
attr source  sentPacketToLowerLayer
vector 850  CAIN.ueD2DTx[27].nic.mac  receivedPacketFromUpperLayer:vector(packetBytes)  ETV
attr interpolationmode  none
attr source  receivedPacketFromUpperLayer
vector 393  CAIN.ueD2DTx[10].nic.mac  sentPacketToUpperLayer:vector(packetBytes)  ETV
attr interpolationmode  none
attr source  sentPacketToUpperLayer
vector 621  CAIN.ueD2DTx[18].nic.phy  averageCqiDlvect:vector  ETV
attr source  averageCqiDlvect
attr title  "Average Cqi reported in DL, vector"
attr unit  cqi
vector 1443  CAIN.ueD2DTx[16].tcp  tcpRcvQueueBytes  ETV
vector 1430  CAIN.ueD2DTx[16].tcp  "advertised window"  ETV
vector 1429  CAIN.ueD2DTx[16].tcp  "receive window"  ETV
vector 1432  CAIN.ueD2DTx[16].tcp  "sent ack"  ETV
vector 549  CAIN.ueD2DTx[16].nic.pdcpRrc  receivedPacketFromUpperLayer:vector(packetBytes)  ETV
attr interpolationmode  none
attr source  receivedPacketFromUpperLayer
vector 552  CAIN.ueD2DTx[16].nic.pdcpRrc  sentPacketToLowerLayer:vector(packetBytes)  ETV
attr interpolationmode  none
attr source  sentPacketToLowerLayer
vector 553  CAIN.ueD2DTx[16].nic.mac  receivedPacketFromUpperLayer:vector(packetBytes)  ETV
attr interpolationmode  none
attr source  receivedPacketFromUpperLayer
vector 609  CAIN.ueD2DTx[18].nic.mac  sentPacketToUpperLayer:vector(packetBytes)  ETV
attr interpolationmode  none
attr source  sentPacketToUpperLayer
vector 604  CAIN.ueD2DTx[18].nic.pdcpRrc  receivedPacketFromLowerLayer:vector(packetBytes)  ETV
attr interpolationmode  none
attr source  receivedPacketFromLowerLayer
vector 605  CAIN.ueD2DTx[18].nic.pdcpRrc  sentPacketToUpperLayer:vector(packetBytes)  ETV
attr interpolationmode  none
attr source  sentPacketToUpperLayer
vector 852  CAIN.ueD2DTx[27].nic.mac  sentPacketToUpperLayer:vector(packetBytes)  ETV
attr interpolationmode  none
attr source  sentPacketToUpperLayer
vector 1467  CAIN.ueD2DTx[24].tcp  tcpRcvQueueBytes  ETV
vector 1454  CAIN.ueD2DTx[24].tcp  "advertised window"  ETV
vector 1453  CAIN.ueD2DTx[24].tcp  "receive window"  ETV
vector 1456  CAIN.ueD2DTx[24].tcp  "sent ack"  ETV
vector 765  CAIN.ueD2DTx[24].nic.pdcpRrc  receivedPacketFromUpperLayer:vector(packetBytes)  ETV
attr interpolationmode  none
attr source  receivedPacketFromUpperLayer
vector 768  CAIN.ueD2DTx[24].nic.pdcpRrc  sentPacketToLowerLayer:vector(packetBytes)  ETV
attr interpolationmode  none
attr source  sentPacketToLowerLayer
vector 769  CAIN.ueD2DTx[24].nic.mac  receivedPacketFromUpperLayer:vector(packetBytes)  ETV
attr interpolationmode  none
attr source  receivedPacketFromUpperLayer
vector 555  CAIN.ueD2DTx[16].nic.mac  sentPacketToUpperLayer:vector(packetBytes)  ETV
attr interpolationmode  none
attr source  sentPacketToUpperLayer
vector 771  CAIN.ueD2DTx[24].nic.mac  sentPacketToUpperLayer:vector(packetBytes)  ETV
attr interpolationmode  none
attr source  sentPacketToUpperLayer
vector 1491  CAIN.ueD2DTx[18].tcp  tcpRcvQueueBytes  ETV
vector 1478  CAIN.ueD2DTx[18].tcp  "advertised window"  ETV
vector 1477  CAIN.ueD2DTx[18].tcp  "receive window"  ETV
vector 1480  CAIN.ueD2DTx[18].tcp  "sent ack"  ETV
vector 603  CAIN.ueD2DTx[18].nic.pdcpRrc  receivedPacketFromUpperLayer:vector(packetBytes)  ETV
attr interpolationmode  none
attr source  receivedPacketFromUpperLayer
vector 606  CAIN.ueD2DTx[18].nic.pdcpRrc  sentPacketToLowerLayer:vector(packetBytes)  ETV
attr interpolationmode  none
attr source  sentPacketToLowerLayer
vector 607  CAIN.ueD2DTx[18].nic.mac  receivedPacketFromUpperLayer:vector(packetBytes)  ETV
attr interpolationmode  none
attr source  receivedPacketFromUpperLayer
vector 1515  CAIN.ueD2DTx[28].tcp  tcpRcvQueueBytes  ETV
vector 1502  CAIN.ueD2DTx[28].tcp  "advertised window"  ETV
vector 1501  CAIN.ueD2DTx[28].tcp  "receive window"  ETV
vector 1504  CAIN.ueD2DTx[28].tcp  "sent ack"  ETV
vector 873  CAIN.ueD2DTx[28].nic.pdcpRrc  receivedPacketFromUpperLayer:vector(packetBytes)  ETV
attr interpolationmode  none
attr source  receivedPacketFromUpperLayer
vector 876  CAIN.ueD2DTx[28].nic.pdcpRrc  sentPacketToLowerLayer:vector(packetBytes)  ETV
attr interpolationmode  none
attr source  sentPacketToLowerLayer
vector 877  CAIN.ueD2DTx[28].nic.mac  receivedPacketFromUpperLayer:vector(packetBytes)  ETV
attr interpolationmode  none
attr source  receivedPacketFromUpperLayer
vector 1539  CAIN.ueD2DTx[6].tcp  tcpRcvQueueBytes  ETV
vector 1526  CAIN.ueD2DTx[6].tcp  "advertised window"  ETV
vector 1525  CAIN.ueD2DTx[6].tcp  "receive window"  ETV
vector 1528  CAIN.ueD2DTx[6].tcp  "sent ack"  ETV
vector 279  CAIN.ueD2DTx[6].nic.pdcpRrc  receivedPacketFromUpperLayer:vector(packetBytes)  ETV
attr interpolationmode  none
attr source  receivedPacketFromUpperLayer
vector 282  CAIN.ueD2DTx[6].nic.pdcpRrc  sentPacketToLowerLayer:vector(packetBytes)  ETV
attr interpolationmode  none
attr source  sentPacketToLowerLayer
vector 283  CAIN.ueD2DTx[6].nic.mac  receivedPacketFromUpperLayer:vector(packetBytes)  ETV
attr interpolationmode  none
attr source  receivedPacketFromUpperLayer
vector 513  CAIN.ueD2DTx[14].nic.phy  averageCqiDlvect:vector  ETV
attr source  averageCqiDlvect
attr title  "Average Cqi reported in DL, vector"
attr unit  cqi
vector 285  CAIN.ueD2DTx[6].nic.mac  sentPacketToUpperLayer:vector(packetBytes)  ETV
attr interpolationmode  none
attr source  sentPacketToUpperLayer
vector 496  CAIN.ueD2DTx[14].nic.pdcpRrc  receivedPacketFromLowerLayer:vector(packetBytes)  ETV
attr interpolationmode  none
attr source  receivedPacketFromLowerLayer
vector 497  CAIN.ueD2DTx[14].nic.pdcpRrc  sentPacketToUpperLayer:vector(packetBytes)  ETV
attr interpolationmode  none
attr source  sentPacketToUpperLayer
vector 1563  CAIN.ueD2DTx[3].tcp  tcpRcvQueueBytes  ETV
vector 1550  CAIN.ueD2DTx[3].tcp  "advertised window"  ETV
vector 1549  CAIN.ueD2DTx[3].tcp  "receive window"  ETV
vector 1552  CAIN.ueD2DTx[3].tcp  "sent ack"  ETV
vector 198  CAIN.ueD2DTx[3].nic.pdcpRrc  receivedPacketFromUpperLayer:vector(packetBytes)  ETV
attr interpolationmode  none
attr source  receivedPacketFromUpperLayer
vector 201  CAIN.ueD2DTx[3].nic.pdcpRrc  sentPacketToLowerLayer:vector(packetBytes)  ETV
attr interpolationmode  none
attr source  sentPacketToLowerLayer
vector 202  CAIN.ueD2DTx[3].nic.mac  receivedPacketFromUpperLayer:vector(packetBytes)  ETV
attr interpolationmode  none
attr source  receivedPacketFromUpperLayer
vector 1587  CAIN.ueD2DTx[1].tcp  tcpRcvQueueBytes  ETV
vector 1574  CAIN.ueD2DTx[1].tcp  "advertised window"  ETV
vector 1573  CAIN.ueD2DTx[1].tcp  "receive window"  ETV
vector 1576  CAIN.ueD2DTx[1].tcp  "sent ack"  ETV
vector 144  CAIN.ueD2DTx[1].nic.pdcpRrc  receivedPacketFromUpperLayer:vector(packetBytes)  ETV
attr interpolationmode  none
attr source  receivedPacketFromUpperLayer
vector 147  CAIN.ueD2DTx[1].nic.pdcpRrc  sentPacketToLowerLayer:vector(packetBytes)  ETV
attr interpolationmode  none
attr source  sentPacketToLowerLayer
vector 148  CAIN.ueD2DTx[1].nic.mac  receivedPacketFromUpperLayer:vector(packetBytes)  ETV
attr interpolationmode  none
attr source  receivedPacketFromUpperLayer
vector 1611  CAIN.ueD2DTx[15].tcp  tcpRcvQueueBytes  ETV
vector 1598  CAIN.ueD2DTx[15].tcp  "advertised window"  ETV
vector 1597  CAIN.ueD2DTx[15].tcp  "receive window"  ETV
vector 1600  CAIN.ueD2DTx[15].tcp  "sent ack"  ETV
vector 522  CAIN.ueD2DTx[15].nic.pdcpRrc  receivedPacketFromUpperLayer:vector(packetBytes)  ETV
attr interpolationmode  none
attr source  receivedPacketFromUpperLayer
vector 525  CAIN.ueD2DTx[15].nic.pdcpRrc  sentPacketToLowerLayer:vector(packetBytes)  ETV
attr interpolationmode  none
attr source  sentPacketToLowerLayer
vector 526  CAIN.ueD2DTx[15].nic.mac  receivedPacketFromUpperLayer:vector(packetBytes)  ETV
attr interpolationmode  none
attr source  receivedPacketFromUpperLayer
vector 204  CAIN.ueD2DTx[3].nic.mac  sentPacketToUpperLayer:vector(packetBytes)  ETV
attr interpolationmode  none
attr source  sentPacketToUpperLayer
vector 1635  CAIN.ueD2DTx[19].tcp  tcpRcvQueueBytes  ETV
vector 1622  CAIN.ueD2DTx[19].tcp  "advertised window"  ETV
vector 1621  CAIN.ueD2DTx[19].tcp  "receive window"  ETV
vector 1624  CAIN.ueD2DTx[19].tcp  "sent ack"  ETV
vector 630  CAIN.ueD2DTx[19].nic.pdcpRrc  receivedPacketFromUpperLayer:vector(packetBytes)  ETV
attr interpolationmode  none
attr source  receivedPacketFromUpperLayer
vector 633  CAIN.ueD2DTx[19].nic.pdcpRrc  sentPacketToLowerLayer:vector(packetBytes)  ETV
attr interpolationmode  none
attr source  sentPacketToLowerLayer
vector 634  CAIN.ueD2DTx[19].nic.mac  receivedPacketFromUpperLayer:vector(packetBytes)  ETV
attr interpolationmode  none
attr source  receivedPacketFromUpperLayer
vector 150  CAIN.ueD2DTx[1].nic.mac  sentPacketToUpperLayer:vector(packetBytes)  ETV
attr interpolationmode  none
attr source  sentPacketToUpperLayer
vector 636  CAIN.ueD2DTx[19].nic.mac  sentPacketToUpperLayer:vector(packetBytes)  ETV
attr interpolationmode  none
attr source  sentPacketToUpperLayer
vector 216  CAIN.ueD2DTx[3].nic.phy  averageCqiDlvect:vector  ETV
attr source  averageCqiDlvect
attr title  "Average Cqi reported in DL, vector"
attr unit  cqi
vector 702  CAIN.ueD2DTx[21].nic.phy  averageCqiDlvect:vector  ETV
attr source  averageCqiDlvect
attr title  "Average Cqi reported in DL, vector"
attr unit  cqi
vector 199  CAIN.ueD2DTx[3].nic.pdcpRrc  receivedPacketFromLowerLayer:vector(packetBytes)  ETV
attr interpolationmode  none
attr source  receivedPacketFromLowerLayer
vector 200  CAIN.ueD2DTx[3].nic.pdcpRrc  sentPacketToUpperLayer:vector(packetBytes)  ETV
attr interpolationmode  none
attr source  sentPacketToUpperLayer
vector 685  CAIN.ueD2DTx[21].nic.pdcpRrc  receivedPacketFromLowerLayer:vector(packetBytes)  ETV
attr interpolationmode  none
attr source  receivedPacketFromLowerLayer
vector 686  CAIN.ueD2DTx[21].nic.pdcpRrc  sentPacketToUpperLayer:vector(packetBytes)  ETV
attr interpolationmode  none
attr source  sentPacketToUpperLayer
8	60986 8 0 0 0 0 1 0 0 0 0
9	60994 8 0 0 0 0 1 0 0 0 0
24	61002 9 0 0 0 0 1 0 0 0 0
25	61011 9 0 0 0 0 1 0 0 0 0
35	61020 9 0 0 0 0 1 0 0 0 0
36	61029 9 0 0 0 0 1 0 0 0 0
56	61038 9 0 0 0 0 1 0 0 0 0
57	61047 9 0 0 0 0 1 0 0 0 0
67	61056 9 0 0 0 0 1 0 0 0 0
68	61065 9 0 0 0 0 1 0 0 0 0
80	61074 521 5272 101079 0.024 0.107 29 44 44 1276 56144
81	61595 521 5267 101074 0.024 0.107 29 45 45 1305 58725
82	62116 521 5267 101074 0.024 0.107 29 44 44 1276 56144
83	62637 521 5272 101079 0.024 0.107 29 45 45 1305 58725
84	63158 1043 5275 101533 0.024 0.108 58 45 47 2668 122786
85	64201 561064 260 516818 0.002 0.973 32228 0 0 0 0
86	625265 1066 5263 101529 0.024 0.108 61 0 47 1369 62081
87	626331 448760 1049 515013 0.017 0.97 25305 0 0 0 0
88	1075091 540 6094 101529 0.025 0.108 30 26 26 780 20280
89	1075631 567747 3087 516816 0.021 0.973 27088 1 27088 366893416 6625728199544
90	1643378 496798 5006 515620 0.023 0.97 23828 1 23828 283898706 4509920210614
91	2140176 64225 3087 516818 0.021 0.973 3261 49 424 1077798 415888980
92	2204401 458952 5006 515620 0.023 0.97 23828 49 296 4256897 810737923
93	2663353 61023 3087 516818 0.021 0.973 3261 1 15 47308 694402
96	2724376 501537 1049 515620 0.017 0.97 24046 1 24046 289117081 4634835925511
97	3225913 440716 1049 515620 0.017 0.97 24046 44 296 1670607 124944475
99	3666629 564 2663 98570 0.021 0.104 32 8 15 427 5887
104	3667193 10 0 0 0 0 1 0 0 0 0
105	3667203 10 0 0 0 0 1 0 0 0 0
117	3667213 28 30067 30067 0.042121352858 0.042121352858 1 44 44 44 1936
118	3667241 266 12794 103542 0.029 0.112 14 45 45 630 28350
119	3667507 266 12794 103542 0.029 0.112 14 44 44 616 27104
120	3667773 28 30067 30067 0.042121352858 0.042121352858 1 45 45 45 2025
121	3667801 28 30070 30070 0.042121352858 0.042121352858 1 45 45 45 2025
122	3667829 26438 2289 516436 0.02 0.972 1414 0 0 0 0
123	3694267 266 12790 103538 0.029 0.112 14 47 47 658 30926
124	3694533 26457 2289 516499 0.02 0.973 1415 0 0 0 0
133	3720990 25200 2289 516436 0.02 0.972 1214 1 1214 737505 597133215
134	3746190 24800 2289 516436 0.02 0.972 1214 72 296 177818 27998548
135	3770990 265 7409 102119 0.026 0.109 14 15 15 210 3150
138	3771255 10 0 0 0 0 1 1 1 1 1
144	3771265 28 86515 86515 0.094045599147 0.094045599147 1 44 44 44 1936
147	3771293 28 86515 86515 0.094045599147 0.094045599147 1 45 45 45 2025
148	3771321 47 86518 90696 0.094045599147 0.099 2 45 47 92 4234
149	3771368 193600 1229 516166 0.018 0.972 10448 0 0 0 0
150	3964968 18 90692 90692 0.099 0.099 1 0 0 0 0
151	3964986 201572 1229 516166 0.018 0.972 10884 0 0 0 0
160	4166558 224242 1229 516166 0.018 0.972 10446 1 10446 54564681 380006626711
161	4390800 204023 1229 516166 0.018 0.972 10446 0 150 773107 113015553
165	4594823 10 0 0 0 0 1 1 1 1 1
171	4594833 28 30075 30075 0.042969444403 0.042969444403 1 44 44 44 1936
174	4594861 28 30075 30075 0.042969444403 0.042969444403 1 45 45 45 2025
175	4594889 47 30078 35343 0.042969444403 0.047 2 45 47 92 4234
176	4594936 201053 1807 516739 0.019 0.973 10720 0 0 0 0
177	4795989 18 35339 35339 0.047 0.047 1 0 0 0 0
178	4796007 201053 1807 516739 0.019 0.973 10720 0 0 0 0
187	4997060 232783 1807 516739 0.019 0.973 10718 1 10718 57443121 410469394959
188	5229843 217405 1807 516739 0.019 0.973 10718 44 296 1385322 218858952
192	5447248 10 0 0 0 0 1 1 1 1 1
198	5447258 28 86013 86013 0.093352724272 0.093352724272 1 44 44 44 1936
199	5447286 20 101542 101542 0.108 0.108 1 45 45 45 2025
200	5447306 20 101542 101542 0.108 0.108 1 44 44 44 1936
201	5447326 28 86013 86013 0.093352724272 0.093352724272 1 45 45 45 2025
202	5447354 47 86016 89355 0.093352724272 0.098 2 45 47 92 4234
203	5447401 372450 1657 516811 0.019 0.973 19835 0 0 0 0
204	5819851 38 89351 101538 0.098 0.108 2 0 47 47 2209
205	5819889 372451 1657 516811 0.019 0.973 19835 0 0 0 0
214	6192340 440618 1657 516811 0.019 0.973 19832 1 19832 196664028 2600226223540
215	6632958 401394 1657 516811 0.019 0.973 19832 44 296 2371674 374857758
216	7034352 19 99527 99527 0.105 0.105 1 15 15 15 225
219	7034371 10 0 0 0 0 1 1 1 1 1
225	7034381 26 979 979 0.015271066679 0.015271066679 1 44 44 44 1936
228	7034407 26 979 979 0.015271066679 0.015271066679 1 45 45 45 2025
229	7034433 43 982 2040 0.015271066679 0.02 2 45 47 92 4234
230	7034476 20452 1655 516448 0.019 0.972 1090 0 0 0 0
231	7054928 16 2036 2036 0.02 0.02 1 0 0 0 0
232	7054944 20450 988 516448 0.016 0.972 1090 0 0 0 0
241	7075394 22575 2295 516448 0.02 0.972 1088 1 1088 592416 429896544
242	7097969 22367 2295 516448 0.02 0.972 1088 72 184 161972 25506622
246	7120336 10 0 0 0 0 1 1 1 1 1
252	7120346 28 14812 14812 0.029794597295 0.029794597295 1 44 44 44 1936
255	7120374 28 14812 14812 0.029794597295 0.029794597295 1 45 45 45 2025
256	7120402 47 14815 21711 0.029794597295 0.034 2 45 47 92 4234
257	7120449 20454 2259 516421 0.02 0.972 1090 0 0 0 0
258	7140903 18 21707 21707 0.034 0.034 1 0 0 0 0
259	7140921 20453 2259 516421 0.02 0.972 1090 0 0 0 0
268	7161374 22575 2259 516421 0.02 0.972 1088 1 1088 592416 429896544
269	7183949 22367 2259 516421 0.02 0.972 1088 72 184 161972 25506622
273	7206316 10 0 0 0 0 1 1 1 1 1
279	7206326 28 79337 79337 0.085841021361 0.085841021361 1 44 44 44 1936
282	7206354 28 79337 79337 0.085841021361 0.085841021361 1 45 45 45 2025
283	7206382 46 79340 82802 0.085841021361 0.09 2 45 47 92 4234
284	7206428 20454 2304 516457 0.02 0.972 1090 0 0 0 0
285	7226882 17 82798 82798 0.09 0.09 1 0 0 0 0
286	7226899 20453 2304 516457 0.02 0.972 1090 0 0 0 0
295	7247352 22575 2304 516457 0.02 0.972 1088 1 1088 592416 429896544
296	7269927 22367 2304 516457 0.02 0.972 1088 72 184 161972 25506622
300	7292294 10 0 0 0 0 1 1 1 1 1
306	7292304 27 6060 6060 0.024730577224 0.024730577224 1 44 44 44 1936
307	7292331 19 49974 49974 0.057 0.057 1 45 45 45 2025
308	7292350 19 49974 49974 0.057 0.057 1 44 44 44 1936
309	7292369 27 6060 6060 0.024730577224 0.024730577224 1 45 45 45 2025
310	7292396 46 6063 12808 0.024730577224 0.029 2 45 47 92 4234
311	7292442 198019 1732 516667 0.019 0.973 10549 0 0 0 0
312	7490461 37 12804 49970 0.029 0.057 2 0 47 47 2209
313	7490498 198018 1732 516667 0.019 0.973 10549 0 0 0 0
322	7688516 229043 1732 516667 0.019 0.973 10546 1 10546 55614331 391024361261
323	7917559 213457 1732 516667 0.019 0.973 10546 49 296 1399724 215635366
324	8131016 19 47674 47674 0.054 0.054 1 15 15 15 225
327	8131035 10 0 0 0 0 1 1 1 1 1
333	8131045 28 21673 21673 0.033422728663 0.033422728663 1 44 44 44 1936
336	8131073 28 21673 21673 0.033422728663 0.033422728663 1 45 45 45 2025
337	8131101 47 21676 25078 0.033422728663 0.038 2 45 47 92 4234
338	8131148 20454 2277 516406 0.02 0.972 1090 0 0 0 0
339	8151602 18 25074 25074 0.038 0.038 1 0 0 0 0
340	8151620 20454 2277 516406 0.02 0.972 1090 0 0 0 0
349	8172074 22575 2277 516406 0.02 0.972 1088 1 1088 592416 429896544
350	8194649 22367 2277 516406 0.02 0.972 1088 49 184 161864 25492150
354	8217016 10 0 0 0 0 1 1 1 1 1
360	8217026 28 30915 30915 0.043409565084 0.043409565084 1 44 44 44 1936
361	8217054 38 25083 68383 0.038 0.076 2 45 45 90 4050
362	8217092 38 25083 68383 0.038 0.076 2 44 44 88 3872
363	8217130 28 30915 30915 0.043409565084 0.043409565084 1 45 45 45 2025
364	8217158 47 30918 37181 0.043409565084 0.048 2 45 47 92 4234
365	8217205 194423 1300 516241 0.018 0.972 10496 0 0 0 0
366	8411628 56 25079 68379 0.038 0.076 3 0 47 94 4418
367	8411684 202359 1300 516241 0.018 0.972 10930 0 0 0 0
376	8614043 225213 1300 516241 0.018 0.972 10492 1 10492 55046278 385048714610
377	8839256 205297 1300 516241 0.018 0.972 10492 0 296 964952 170850864
378	9044553 38 22621 64708 0.035 0.073 2 15 15 30 450
381	9044591 10 0 0 0 0 1 1 1 1 1
387	9044601 28 55744 55744 0.062577862614 0.062577862614 1 44 44 44 1936
390	9044629 28 55744 55744 0.062577862614 0.062577862614 1 45 45 45 2025
391	9044657 47 55747 59226 0.062577862614 0.067 2 45 47 92 4234
392	9044704 24355 1801 516394 0.019 0.972 1308 0 0 0 0
393	9069059 18 59222 59222 0.067 0.067 1 0 0 0 0
394	9069077 24355 1801 516394 0.019 0.972 1308 0 0 0 0
403	9093432 27130 1801 516394 0.019 0.972 1306 1 1306 853471 743373241
404	9120562 26368 1801 516394 0.019 0.972 1306 49 296 169851 24560257
408	9146930 10 0 0 0 0 1 1 1 1 1
414	9146940 28 33578 33578 0.045308000082 0.045308000082 1 44 44 44 1936
417	9146968 28 33578 33578 0.045308000082 0.045308000082 1 45 45 45 2025
418	9146996 46 33581 41412 0.045308000082 0.05 2 45 47 92 4234
419	9147042 20454 2271 516397 0.02 0.972 1090 0 0 0 0
420	9167496 17 41408 41408 0.05 0.05 1 0 0 0 0
421	9167513 20453 2271 516397 0.02 0.972 1090 0 0 0 0
430	9187966 22575 2271 516397 0.02 0.972 1088 1 1088 592416 429896544
431	9210541 22367 2271 516397 0.02 0.972 1088 72 184 161972 25506622
435	9232908 10 0 0 0 0 1 1 1 1 1
441	9232918 28 22458 22458 0.034135579374 0.034135579374 1 44 44 44 1936
442	9232946 38 46401 49141 0.053 0.056 2 45 45 90 4050
443	9232984 38 46401 49141 0.053 0.056 2 44 44 88 3872
444	9233022 28 22458 22458 0.034135579374 0.034135579374 1 45 45 45 2025
445	9233050 47 22461 26016 0.034135579374 0.039 2 45 47 92 4234
446	9233097 193657 1371 516316 0.018 0.972 10450 0 0 0 0
447	9426754 56 26012 49137 0.039 0.056 3 0 47 94 4418
448	9426810 201558 1371 516316 0.018 0.972 10882 0 0 0 0
457	9628368 224264 1371 516316 0.018 0.972 10446 1 10446 54564681 380006626711
458	9852632 199396 1371 516316 0.018 0.972 10446 0 296 476120 43161552
459	10052028 37 41496 46426 0.05 0.053 2 15 15 30 450
462	10052065 10 0 0 0 0 1 1 1 1 1
468	10052075 28 47476 47476 0.053824975863 0.053824975863 1 44 44 44 1936
471	10052103 28 47476 47476 0.053824975863 0.053824975863 1 45 45 45 2025
472	10052131 47 47479 50785 0.053824975863 0.058 2 45 47 92 4234
473	10052178 20454 2280 516412 0.02 0.972 1090 0 0 0 0
474	10072632 18 50781 50781 0.058 0.058 1 0 0 0 0
475	10072650 20454 2280 516412 0.02 0.972 1090 0 0 0 0
484	10093104 22575 2280 516412 0.02 0.972 1088 1 1088 592416 429896544
485	10115679 22367 2280 516412 0.02 0.972 1088 49 184 161864 25492150
489	10138046 10 0 0 0 0 1 1 1 1 1
495	10138056 28 50762 50762 0.057867318192 0.057867318192 1 44 44 44 1936
496	10138084 39 84601 101101 0.092 0.107 2 45 45 90 4050
497	10138123 39 84601 101101 0.092 0.107 2 44 44 88 3872
498	10138162 28 50762 50762 0.057867318192 0.057867318192 1 45 45 45 2025
499	10138190 47 50765 54910 0.057867318192 0.062 2 45 47 92 4234
500	10138237 195314 1442 516391 0.018 0.972 10542 0 0 0 0
501	10333551 57 54906 101097 0.062 0.107 3 0 47 94 4418
502	10333608 203215 1442 516391 0.018 0.972 10974 0 0 0 0
511	10536823 226288 1442 516391 0.018 0.972 10538 1 10538 55529991 390135206769
512	10763111 206277 1442 516391 0.018 0.972 10538 0 296 823372 123094284
513	10969388 38 82053 98568 0.089 0.104 2 15 15 30 450
516	10969426 10 0 0 0 0 1 1 1 1 1
522	10969436 27 88170 88170 0.09661692474 0.09661692474 1 44 44 44 1936
523	10969463 56 25096 85408 0.038 0.093 3 45 45 135 6075
524	10969519 56 25096 85408 0.038 0.093 3 44 44 132 5808
525	10969575 27 88170 88170 0.09661692474 0.09661692474 1 45 45 45 2025
526	10969602 46 88173 94115 0.09661692474 0.101 2 45 47 92 4234
527	10969648 193674 1513 516466 0.018 0.972 10451 0 0 0 0
528	11163322 74 25092 94111 0.038 0.101 4 0 47 141 6627
529	11163396 201647 1513 516466 0.018 0.972 10887 0 0 0 0
538	11365043 224264 1513 516466 0.018 0.972 10446 1 10446 54564681 380006626711
539	11589307 204159 1513 516466 0.018 0.972 10446 0 184 948869 170837649
540	11793466 56 22623 82829 0.035 0.09 3 15 15 45 675
543	11793522 10 0 0 0 0 1 1 1 1 1
549	11793532 28 62895 62895 0.070835915371 0.070835915371 1 44 44 44 1936
552	11793560 28 62895 62895 0.070835915371 0.070835915371 1 45 45 45 2025
553	11793588 47 62898 67043 0.070835915371 0.075 2 45 47 92 4234
554	11793635 20453 2307 516445 0.02 0.972 1090 0 0 0 0
555	11814088 18 67039 67039 0.075 0.075 1 0 0 0 0
556	11814106 20454 2307 516445 0.02 0.972 1090 0 0 0 0
565	11834560 22575 2307 516445 0.02 0.972 1088 1 1088 592416 429896544
566	11857135 22367 2307 516445 0.02 0.972 1088 72 184 161972 25506622
570	11879502 10 0 0 0 0 1 1 1 1 1
576	11879512 28 10655 10655 0.027295592418 0.027295592418 1 44 44 44 1936
579	11879540 28 10655 10655 0.027295592418 0.027295592418 1 45 45 45 2025
580	11879568 47 10658 19069 0.027295592418 0.032 2 45 47 92 4234
581	11879615 20454 2310 516451 0.02 0.972 1090 0 0 0 0
582	11900069 18 19065 19065 0.032 0.032 1 0 0 0 0
583	11900087 20454 2310 516451 0.02 0.972 1090 0 0 0 0
592	11920541 22575 2310 516451 0.02 0.972 1088 1 1088 592416 429896544
593	11943116 22367 2310 516451 0.02 0.972 1088 72 184 161972 25506622
597	11965483 10 0 0 0 0 1 1 1 1 1
603	11965493 28 71659 71659 0.078519724591 0.078519724591 1 44 44 44 1936
604	11965521 19 62935 62935 0.071 0.071 1 45 45 45 2025
605	11965540 19 62935 62935 0.071 0.071 1 44 44 44 1936
606	11965559 28 71659 71659 0.078519724591 0.078519724591 1 45 45 45 2025
607	11965587 47 71662 75613 0.078519724591 0.083 2 45 47 92 4234
608	11965634 20470 1954 516418 0.019 0.972 1091 0 0 0 0
609	11986104 37 62931 75609 0.071 0.083 2 0 47 47 2209
610	11986141 20470 1954 516418 0.019 0.972 1091 0 0 0 0
619	12006611 22573 1954 516418 0.019 0.972 1088 1 1088 592416 429896544
620	12029184 22150 1954 516418 0.019 0.972 1088 72 184 146630 22004244
621	12051334 19 60097 60097 0.068 0.068 1 15 15 15 225
624	12051353 10 0 0 0 0 1 1 1 1 1
630	12051363 27 90678 90678 0.09830275926 0.09830275926 1 44 44 44 1936
633	12051390 27 90678 90678 0.09830275926 0.09830275926 1 45 45 45 2025
634	12051417 46 90681 97270 0.09830275926 0.103 2 45 47 92 4234
635	12051463 20455 2265 516409 0.02 0.972 1090 0 0 0 0
636	12071918 18 97266 97266 0.103 0.103 1 0 0 0 0
637	12071936 20454 2265 516409 0.02 0.972 1090 0 0 0 0
646	12092390 22575 2265 516409 0.02 0.972 1088 1 1088 592416 429896544
647	12114965 22367 2265 516409 0.02 0.972 1088 72 184 161972 25506622
651	12137332 10 0 0 0 0 1 1 1 1 1
657	12137342 27 5229 5229 0.023564362929 0.023564362929 1 44 44 44 1936
660	12137369 27 5229 5229 0.023564362929 0.023564362929 1 45 45 45 2025
661	12137396 46 5232 10686 0.023564362929 0.028 2 45 47 92 4234
662	12137442 20453 2292 516439 0.02 0.972 1090 0 0 0 0
663	12157895 18 10682 10682 0.028 0.028 1 0 0 0 0
664	12157913 20453 2292 516439 0.02 0.972 1090 0 0 0 0
673	12178366 22575 2292 516439 0.02 0.972 1088 1 1088 592416 429896544
674	12200941 22367 2292 516439 0.02 0.972 1088 72 184 161972 25506622
678	12223308 10 0 0 0 0 1 1 1 1 1
684	12223318 26 6052 6052 0.02460266276 0.02460266276 1 44 44 44 1936
685	12223344 19 102478 102478 0.11 0.11 1 45 45 45 2025
686	12223363 19 102478 102478 0.11 0.11 1 44 44 44 1936
687	12223382 26 6052 6052 0.02460266276 0.02460266276 1 45 45 45 2025
688	12223408 45 6055 12826 0.02460266276 0.029 2 45 47 92 4234
689	12223453 195355 1957 516349 0.019 0.972 10401 0 0 0 0
690	12418808 37 12822 102474 0.029 0.11 2 0 47 47 2209
691	12418845 195353 1957 516349 0.019 0.972 10401 0 0 0 0
700	12614198 225786 1957 516349 0.019 0.972 10398 1 10398 54064401 374792449199
701	12839984 210775 1957 516349 0.019 0.972 10398 57 296 1233083 192128361
702	13050759 20 101122 101122 0.107 0.107 1 15 15 15 225
705	13050779 10 0 0 0 0 1 1 1 1 1
711	13050789 27 2625 2625 0.020321288879 0.020321288879 1 44 44 44 1936
714	13050816 27 2625 2625 0.020321288879 0.020321288879 1 45 45 45 2025
715	13050843 62 2628 14875 0.020321288879 0.03 3 4 45 94 4066
716	13050905 20488 2301 516433 0.02 0.972 1092 0 0 0 0
717	13071393 34 6123 14871 0.025 0.03 2 0 0 0 0
718	13071427 20486 2301 516433 0.02 0.972 1092 0 0 0 0
727	13091913 22575 2301 516433 0.02 0.972 1088 1 1088 592416 429896544
728	13114488 22367 2301 516433 0.02 0.972 1088 72 184 161972 25506622
732	13136855 10 0 0 0 0 1 1 1 1 1
738	13136865 28 24071 24071 0.036168531764 0.036168531764 1 44 44 44 1936
741	13136893 28 24071 24071 0.036168531764 0.036168531764 1 45 45 45 2025
742	13136921 66 24074 33612 0.036168531764 0.046 3 19 45 94 3286
743	13136987 20489 2298 516454 0.02 0.972 1092 0 0 0 0
744	13157476 36 28160 33608 0.041 0.046 2 0 0 0 0
745	13157512 20490 2298 516454 0.02 0.972 1092 0 0 0 0
754	13178002 22575 2298 516454 0.02 0.972 1088 1 1088 592416 429896544
755	13200577 22367 2298 516454 0.02 0.972 1088 72 184 161972 25506622
759	13222944 10 0 0 0 0 1 1 1 1 1
765	13222954 28 64639 64639 0.072637680077 0.072637680077 1 44 44 44 1936
768	13222982 28 64639 64639 0.072637680077 0.072637680077 1 45 45 45 2025
769	13223010 47 64642 69556 0.072637680077 0.077 2 45 47 92 4234
770	13223057 20454 2286 516442 0.02 0.972 1090 0 0 0 0
771	13243511 18 69552 69552 0.077 0.077 1 0 0 0 0
772	13243529 20454 2286 516442 0.02 0.972 1090 0 0 0 0
781	13263983 22575 2286 516442 0.02 0.972 1088 1 1088 592416 429896544
782	13286558 22367 2286 516442 0.02 0.972 1088 72 184 161972 25506622
786	13308925 10 0 0 0 0 1 1 1 1 1
792	13308935 27 27079 27079 0.03994991611 0.03994991611 1 44 44 44 1936
795	13308962 27 27079 27079 0.03994991611 0.03994991611 1 45 45 45 2025
796	13308989 46 27082 30955 0.03994991611 0.044 2 45 47 92 4234
797	13309035 20452 1876 516424 0.019 0.972 1090 0 0 0 0
798	13329487 18 30951 30951 0.044 0.044 1 0 0 0 0
799	13329505 20451 1876 516424 0.019 0.972 1090 0 0 0 0
808	13349956 22573 1876 516424 0.019 0.972 1088 1 1088 592416 429896544
809	13372529 22362 1876 516424 0.019 0.972 1088 72 184 158912 25001758
813	13394891 10 0 0 0 0 1 1 1 1 1
819	13394901 27 1587 1587 0.018591095924 0.018591095924 1 44 44 44 1936
822	13394928 27 1587 1587 0.018591095924 0.018591095924 1 45 45 45 2025
823	13394955 64 1590 10696 0.018591095924 0.028 3 16 45 94 3370
824	13395019 20488 2283 516430 0.02 0.972 1092 0 0 0 0
825	13415507 35 4264 10692 0.023 0.028 2 0 0 0 0
826	13415542 20487 1648 516430 0.019 0.972 1092 0 0 0 0
835	13436029 22575 2283 516430 0.02 0.972 1088 1 1088 592416 429896544
836	13458604 22367 2283 516430 0.02 0.972 1088 72 184 161972 25506622
840	13480971 10 0 0 0 0 1 1 1 1 1
846	13480981 28 59173 59173 0.066691168167 0.066691168167 1 44 44 44 1936
849	13481009 28 59173 59173 0.066691168167 0.066691168167 1 45 45 45 2025
850	13481037 47 59176 62951 0.066691168167 0.071 2 45 47 92 4234
851	13481084 20445 1723 516277 0.019 0.972 1090 0 0 0 0
852	13501529 18 62947 62947 0.071 0.071 1 0 0 0 0
853	13501547 20446 1723 516277 0.019 0.972 1090 0 0 0 0
862	13521993 22567 1723 516277 0.019 0.972 1088 1 1088 592416 429896544
863	13544560 21501 1723 516277 0.019 0.972 1088 44 169 77783 5940557
867	13566061 10 0 0 0 0 1 1 1 1 1
873	13566071 28 72519 72519 0.079762439218 0.079762439218 1 44 44 44 1936
874	13566099 38 37204 59249 0.048 0.067 2 45 45 90 4050
875	13566137 38 37204 59249 0.048 0.067 2 44 44 88 3872
876	13566175 28 72519 72519 0.079762439218 0.079762439218 1 45 45 45 2025
877	13566203 47 72522 76812 0.079762439218 0.084 2 45 47 92 4234
878	13566250 22625 1726 516331 0.019 0.972 1212 0 0 0 0
879	13588875 56 37200 76808 0.048 0.084 3 0 47 94 4418
880	13588931 22730 1726 516331 0.019 0.972 1218 0 0 0 0
889	13611661 25070 1726 516331 0.019 0.972 1208 1 1208 730236 588326804
[...]
878	145151559 149297 4645275 5143578 8.769 9.397 7548 0 0 0 0
879	145300856 62 4852052 4922996 9.048 9.084 3 0 47 94 4418
880	145300918 155990 4645275 5143578 8.769 9.397 7890 0 0 0 0
889	145456908 179393 4645275 5143578 8.769 9.397 7544 30049 37592 255141852 8664803642036
890	145636301 153545 4645275 5143578 8.769 9.397 7544 0 137 357726 33363328
891	145789846 42 4845635 4886349 9.045 9.064 2 15 15 30 450
900	145789888 30 4849743 4849743 9.046453734287 9.046453734287 1 44 44 44 1936
903	145789918 30 4849743 4849743 9.046453734287 9.046453734287 1 45 45 45 2025
904	145789948 71 4849746 4870850 9.046453734287 9.056 3 4 45 94 4066
905	145790019 23798 4646704 5143530 8.772 9.397 1191 0 0 0 0
906	145813817 40 4860734 4870846 9.051 9.056 2 0 0 0 0
907	145813857 23799 4646704 5143530 8.772 9.397 1191 0 0 0 0
916	145837656 28467 4646704 5143530 8.772 9.397 1187 10108 11294 12702087 136064403405
917	145866123 25747 4646704 5143530 8.772 9.397 1187 46 184 169760 26004320
925	145891870 32 4793063 4793063 9.015271066679 9.015271066679 1 7504 7504 7504 56310016
926	145891902 32 4793063 4793063 9.015271066679 9.015271066679 1 7504 7504 7504 56310016
928	145891934 29 4793063 4793063 9.015271066679 9.015271066679 1 0 0 0 0
939	145891963 29 4793063 4793063 9.015271066679 9.015271066679 1 0 0 0 0
949	145891992 32 4795234 4795234 9.018591095924 9.018591095924 1 7504 7504 7504 56310016
950	145892024 32 4795234 4795234 9.018591095924 9.018591095924 1 7504 7504 7504 56310016
952	145892056 29 4795234 4795234 9.018591095924 9.018591095924 1 0 0 0 0
963	145892085 29 4795234 4795234 9.018591095924 9.018591095924 1 0 0 0 0
973	145892114 32 4797824 4797824 9.020321288879 9.020321288879 1 7504 7504 7504 56310016
974	145892146 32 4797824 4797824 9.020321288879 9.020321288879 1 7504 7504 7504 56310016
976	145892178 29 4797824 4797824 9.020321288879 9.020321288879 1 0 0 0 0
987	145892207 29 4797824 4797824 9.020321288879 9.020321288879 1 0 0 0 0
997	145892236 32 4802559 4802559 9.023564362929 9.023564362929 1 7504 7504 7504 56310016
998	145892268 32 4802559 4802559 9.023564362929 9.023564362929 1 7504 7504 7504 56310016
1000	145892300 30 4802559 4802559 9.023564362929 9.023564362929 1 0 0 0 0
1011	145892330 30 4802559 4802559 9.023564362929 9.023564362929 1 0 0 0 0
1021	145892360 32 4804159 4804159 9.02460266276 9.02460266276 1 7504 7504 7504 56310016
1022	145892392 32 4804159 4804159 9.02460266276 9.02460266276 1 7504 7504 7504 56310016
1024	145892424 29 4804159 4804159 9.02460266276 9.02460266276 1 0 0 0 0
1035	145892453 29 4804159 4804159 9.02460266276 9.02460266276 1 0 0 0 0
1045	145892482 33 4804166 4804166 9.024730577224 9.024730577224 1 7504 7504 7504 56310016
1046	145892515 33 4804166 4804166 9.024730577224 9.024730577224 1 7504 7504 7504 56310016
1048	145892548 30 4804166 4804166 9.024730577224 9.024730577224 1 0 0 0 0
1059	145892578 30 4804166 4804166 9.024730577224 9.024730577224 1 0 0 0 0
1069	145892608 33 4810460 4810460 9.027295592418 9.027295592418 1 7504 7504 7504 56310016
1070	145892641 33 4810460 4810460 9.027295592418 9.027295592418 1 7504 7504 7504 56310016
1072	145892674 30 4810460 4810460 9.027295592418 9.027295592418 1 0 0 0 0
1083	145892704 30 4810460 4810460 9.027295592418 9.027295592418 1 0 0 0 0
1093	145892734 33 4814922 4814922 9.029794597295 9.029794597295 1 7504 7504 7504 56310016
1094	145892767 33 4814922 4814922 9.029794597295 9.029794597295 1 7504 7504 7504 56310016
1096	145892800 30 4814922 4814922 9.029794597295 9.029794597295 1 0 0 0 0
1107	145892830 30 4814922 4814922 9.029794597295 9.029794597295 1 0 0 0 0
1117	145892860 33 4824503 4824503 9.033422728663 9.033422728663 1 7504 7504 7504 56310016
1118	145892893 33 4824503 4824503 9.033422728663 9.033422728663 1 7504 7504 7504 56310016
1120	145892926 30 4824503 4824503 9.033422728663 9.033422728663 1 0 0 0 0
1131	145892956 30 4824503 4824503 9.033422728663 9.033422728663 1 0 0 0 0
1141	145892986 33 4826528 4826528 9.034135579374 9.034135579374 1 7504 7504 7504 56310016
1142	145893019 33 4826528 4826528 9.034135579374 9.034135579374 1 7504 7504 7504 56310016
1144	145893052 30 4826528 4826528 9.034135579374 9.034135579374 1 0 0 0 0
1155	145893082 30 4826528 4826528 9.034135579374 9.034135579374 1 0 0 0 0
1165	145893112 33 4830669 4830669 9.036168531764 9.036168531764 1 7504 7504 7504 56310016
1166	145893145 33 4830669 4830669 9.036168531764 9.036168531764 1 7504 7504 7504 56310016
1168	145893178 30 4830669 4830669 9.036168531764 9.036168531764 1 0 0 0 0
1179	145893208 30 4830669 4830669 9.036168531764 9.036168531764 1 0 0 0 0
1189	145893238 32 4836478 4836478 9.03994991611 9.03994991611 1 7504 7504 7504 56310016
1190	145893270 32 4836478 4836478 9.03994991611 9.03994991611 1 7504 7504 7504 56310016
1192	145893302 29 4836478 4836478 9.03994991611 9.03994991611 1 0 0 0 0
1203	145893331 29 4836478 4836478 9.03994991611 9.03994991611 1 0 0 0 0
1213	145893360 33 4842115 4842115 9.042121352858 9.042121352858 1 7504 7504 7504 56310016
1214	145893393 33 4842115 4842115 9.042121352858 9.042121352858 1 7504 7504 7504 56310016
1216	145893426 30 4842115 4842115 9.042121352858 9.042121352858 1 0 0 0 0
1227	145893456 30 4842115 4842115 9.042121352858 9.042121352858 1 0 0 0 0
1237	145893486 33 4842122 4842122 9.042969444403 9.042969444403 1 7504 7504 7504 56310016
1238	145893519 33 4842122 4842122 9.042969444403 9.042969444403 1 7504 7504 7504 56310016
1240	145893552 30 4842122 4842122 9.042969444403 9.042969444403 1 0 0 0 0
1251	145893582 30 4842122 4842122 9.042969444403 9.042969444403 1 0 0 0 0
1261	145893612 33 4843602 4843602 9.043409565084 9.043409565084 1 7504 7504 7504 56310016
1262	145893645 33 4843602 4843602 9.043409565084 9.043409565084 1 7504 7504 7504 56310016
1264	145893678 30 4843602 4843602 9.043409565084 9.043409565084 1 0 0 0 0
1275	145893708 30 4843602 4843602 9.043409565084 9.043409565084 1 0 0 0 0
1285	145893738 33 4847564 4847564 9.045308000082 9.045308000082 1 7504 7504 7504 56310016
1286	145893771 33 4847564 4847564 9.045308000082 9.045308000082 1 7504 7504 7504 56310016
1288	145893804 30 4847564 4847564 9.045308000082 9.045308000082 1 0 0 0 0
1299	145893834 30 4847564 4847564 9.045308000082 9.045308000082 1 0 0 0 0
1309	145893864 33 4849740 4849740 9.046453734287 9.046453734287 1 7504 7504 7504 56310016
1310	145893897 33 4849740 4849740 9.046453734287 9.046453734287 1 7504 7504 7504 56310016
1312	145893930 30 4849740 4849740 9.046453734287 9.046453734287 1 0 0 0 0
1323	145893960 30 4849740 4849740 9.046453734287 9.046453734287 1 0 0 0 0
1333	145893990 33 4866750 4866750 9.053824975863 9.053824975863 1 7504 7504 7504 56310016
1334	145894023 33 4866750 4866750 9.053824975863 9.053824975863 1 7504 7504 7504 56310016
1336	145894056 30 4866750 4866750 9.053824975863 9.053824975863 1 0 0 0 0
1347	145894086 30 4866750 4866750 9.053824975863 9.053824975863 1 0 0 0 0
1357	145894116 33 4874763 4874763 9.057867318192 9.057867318192 1 7504 7504 7504 56310016
1358	145894149 33 4874763 4874763 9.057867318192 9.057867318192 1 7504 7504 7504 56310016
1360	145894182 30 4874763 4874763 9.057867318192 9.057867318192 1 0 0 0 0
1371	145894212 30 4874763 4874763 9.057867318192 9.057867318192 1 0 0 0 0
1381	145894242 33 4884505 4884505 9.062577862614 9.062577862614 1 7504 7504 7504 56310016
1382	145894275 33 4884505 4884505 9.062577862614 9.062577862614 1 7504 7504 7504 56310016
1384	145894308 30 4884505 4884505 9.062577862614 9.062577862614 1 0 0 0 0
1395	145894338 30 4884505 4884505 9.062577862614 9.062577862614 1 0 0 0 0
1405	145894368 33 4891260 4891260 9.066691168167 9.066691168167 1 7504 7504 7504 56310016
1406	145894401 33 4891260 4891260 9.066691168167 9.066691168167 1 7504 7504 7504 56310016
1408	145894434 30 4891260 4891260 9.066691168167 9.066691168167 1 0 0 0 0
1419	145894464 30 4891260 4891260 9.066691168167 9.066691168167 1 0 0 0 0
1429	145894494 33 4898414 4898414 9.070835915371 9.070835915371 1 7504 7504 7504 56310016
1430	145894527 33 4898414 4898414 9.070835915371 9.070835915371 1 7504 7504 7504 56310016
1432	145894560 30 4898414 4898414 9.070835915371 9.070835915371 1 0 0 0 0
1443	145894590 30 4898414 4898414 9.070835915371 9.070835915371 1 0 0 0 0
1453	145894620 33 4901566 4901566 9.072637680077 9.072637680077 1 7504 7504 7504 56310016
1454	145894653 33 4901566 4901566 9.072637680077 9.072637680077 1 7504 7504 7504 56310016
1456	145894686 30 4901566 4901566 9.072637680077 9.072637680077 1 0 0 0 0
1467	145894716 30 4901566 4901566 9.072637680077 9.072637680077 1 0 0 0 0
1477	145894746 33 4913765 4913765 9.078519724591 9.078519724591 1 7504 7504 7504 56310016
1478	145894779 33 4913765 4913765 9.078519724591 9.078519724591 1 7504 7504 7504 56310016
1480	145894812 30 4913765 4913765 9.078519724591 9.078519724591 1 0 0 0 0
1491	145894842 30 4913765 4913765 9.078519724591 9.078519724591 1 0 0 0 0
1501	145894872 33 4915572 4915572 9.079762439218 9.079762439218 1 7504 7504 7504 56310016
1502	145894905 33 4915572 4915572 9.079762439218 9.079762439218 1 7504 7504 7504 56310016
1504	145894938 30 4915572 4915572 9.079762439218 9.079762439218 1 0 0 0 0
1515	145894968 30 4915572 4915572 9.079762439218 9.079762439218 1 0 0 0 0
1525	145894998 33 4927425 4927425 9.085841021361 9.085841021361 1 7504 7504 7504 56310016
1526	145895031 33 4927425 4927425 9.085841021361 9.085841021361 1 7504 7504 7504 56310016
1528	145895064 30 4927425 4927425 9.085841021361 9.085841021361 1 0 0 0 0
1539	145895094 30 4927425 4927425 9.085841021361 9.085841021361 1 0 0 0 0
1549	145895124 33 4940089 4940089 9.093352724272 9.093352724272 1 7504 7504 7504 56310016
1550	145895157 33 4940089 4940089 9.093352724272 9.093352724272 1 7504 7504 7504 56310016
1552	145895190 30 4940089 4940089 9.093352724272 9.093352724272 1 0 0 0 0
1563	145895220 30 4940089 4940089 9.093352724272 9.093352724272 1 0 0 0 0
1573	145895250 33 4941448 4941448 9.094045599147 9.094045599147 1 7504 7504 7504 56310016
1574	145895283 33 4941448 4941448 9.094045599147 9.094045599147 1 7504 7504 7504 56310016
1576	145895316 30 4941448 4941448 9.094045599147 9.094045599147 1 0 0 0 0
1587	145895346 30 4941448 4941448 9.094045599147 9.094045599147 1 0 0 0 0
1597	145895376 32 4944507 4944507 9.09661692474 9.09661692474 1 7504 7504 7504 56310016
1598	145895408 32 4944507 4944507 9.09661692474 9.09661692474 1 7504 7504 7504 56310016
1600	145895440 29 4944507 4944507 9.09661692474 9.09661692474 1 0 0 0 0
1611	145895469 29 4944507 4944507 9.09661692474 9.09661692474 1 0 0 0 0
1621	145895498 32 4948712 4948712 9.09830275926 9.09830275926 1 7504 7504 7504 56310016
1622	145895530 32 4948712 4948712 9.09830275926 9.09830275926 1 7504 7504 7504 56310016
1624	145895562 29 4948712 4948712 9.09830275926 9.09830275926 1 0 0 0 0
1635	145895591 29 4948712 4948712 9.09830275926 9.09830275926 1 0 0 0 0
85	145895620 418833 5144064 5505351 9.398 10 22587 0 0 0 0
87	146314453 340183 5144168 5504584 9.399 10 17908 0 0 0 0
89	146654636 457524 5144064 5505351 9.398 10 19466 272427 291892 5492516827 1.5503804814035e+15
90	147112160 396900 5145253 5505351 9.4 10 16940 238551 255490 4184527270 1.0340691154463e+15
91	147509060 52925 5144064 5503954 9.398 9.998 2526 87 424 837331 321600821
92	147561985 345475 5145253 5505351 9.4 10 16940 87 292 3067334 588307886
93	147907460 50520 5144064 5503954 9.398 9.998 2526 19 19 47994 911886
96	147957980 399804 5144168 5505351 9.399 10 17061 240531 257591 4249229721 1.0587312432904e+15
97	148357784 334101 5144168 5505351 9.399 10 17061 45 199 1426647 161942809
122	148691885 19200 5145565 5503347 9.401 9.997 960 0 0 0 0
124	148711085 19200 5146146 5503401 9.402 9.998 960 0 0 0 0
133	148730285 20160 5146146 5503347 9.402 9.997 840 11547 12386 10051860 120334974620
134	148750445 18240 5146146 5503347 9.402 9.997 840 87 184 121080 18634440
149	148768685 104971 5144317 5504678 9.399 10 5321 0 0 0 0
151	148873656 109673 5144317 5504678 9.399 10 5563 0 0 0 0
160	148983329 126255 5144317 5504678 9.399 10 5321 92322 97642 505399222 48016383377824
161	149109584 110531 5144317 5504678 9.399 10 5321 0 172 425320 65221120
176	149220115 209200 5144070 5503947 9.398 9.998 10460 0 0 0 0
178	149429315 209200 5144070 5503947 9.398 9.998 10460 0 0 0 0
187	149638515 261500 5144070 5503947 9.398 9.998 10460 141275 151734 1532437070 2.2460429716561e+14
188	149900015 225080 5144070 5503947 9.398 9.998 10460 45 292 1288899 207903025
203	150125095 208800 5145567 5503749 9.401 9.998 10440 0 0 0 0
205	150333895 208800 5145567 5503749 9.401 9.998 10440 0 0 0 0
214	150542695 261000 5145567 5503749 9.401 9.998 10440 161079 171518 1736156340 2.8881501953862e+14
215	150803695 224160 5145567 5503749 9.401 9.998 10440 46 292 1254640 198886320
230	151027855 16800 5146155 5503383 9.402 9.997 840 0 0 0 0
232	151044655 16800 5146155 5503383 9.402 9.997 840 0 0 0 0
241	151061455 20160 5146155 5503383 9.402 9.997 840 11295 12134 9840180 115322180540
242	151081615 18240 5146155 5503383 9.402 9.997 840 87 184 121080 18634440
257	151099855 16800 5146122 5503356 9.402 9.997 840 0 0 0 0
259	151116655 16800 5146122 5503356 9.402 9.997 840 0 0 0 0
268	151133455 20160 5146122 5503356 9.402 9.997 840 11295 12134 9840180 115322180540
269	151153615 18240 5146122 5503356 9.402 9.997 840 87 184 121080 18634440
284	151171855 16800 5146164 5503377 9.402 9.997 840 0 0 0 0
286	151188655 16800 5146164 5503377 9.402 9.997 840 0 0 0 0
295	151205455 20160 5146164 5503377 9.402 9.997 840 11295 12134 9840180 115322180540
296	151225615 18240 5146164 5503377 9.402 9.997 840 87 184 121080 18634440
311	151243855 112800 5145636 5503617 9.401 9.998 5640 0 0 0 0
313	151356655 112800 5145636 5503617 9.401 9.998 5640 0 0 0 0
322	151469455 136135 5145636 5503617 9.401 9.998 5640 95135 100774 552463380 54131224667740
323	151605590 121200 5145636 5503617 9.401 9.998 5640 87 292 753080 116445240
338	151726790 16800 5146041 5503299 9.401 9.997 840 0 0 0 0
340	151743590 16800 5146041 5503299 9.401 9.997 840 0 0 0 0
349	151760390 20160 5146041 5503299 9.401 9.997 840 11383 12222 9914100 117060557180
350	151780550 18240 5146041 5503299 9.401 9.997 840 45 184 116040 17969160
365	151798790 104971 5144377 5504743 9.399 10 5321 0 0 0 0
367	151903761 109673 5144377 5504743 9.399 10 5563 0 0 0 0
376	152013434 126255 5144377 5504743 9.399 10 5321 92415 97735 505894075 48110433654445
377	152139689 110531 5144377 5504743 9.399 10 5321 0 184 502800 91369680
392	152250220 208800 5145630 5503881 9.401 9.998 10440 0 0 0 0
394	152459020 208820 5144061 5503881 9.398 9.998 10441 0 0 0 0
403	152667840 250584 5144061 5503881 9.398 9.998 10441 67958 78398 764051498 56006612202784
404	152918424 226462 5144061 5503881 9.398 9.998 10441 46 292 1552764 276307216
419	153144886 16800 5145975 5503368 9.401 9.997 840 0 0 0 0
421	153161686 16800 5145975 5503368 9.401 9.997 840 0 0 0 0
430	153178486 20160 5145975 5503368 9.401 9.997 840 11295 12134 9840180 115322180540
431	153198646 18240 5145975 5503368 9.401 9.997 840 87 199 124320 19836480
446	153216886 104971 5144437 5504808 9.399 10 5321 0 0 0 0
448	153321857 109673 5144437 5504808 9.399 10 5563 0 0 0 0
457	153431530 126255 5144437 5504808 9.399 10 5321 92147 97467 504468047 47839656605749
458	153557785 107991 5144437 5504808 9.399 10 5321 0 145 253620 23683740
473	153665776 16800 5146044 5503296 9.401 9.997 840 0 0 0 0
475	153682576 16800 5146044 5503296 9.401 9.997 840 0 0 0 0
484	153699376 20160 5146044 5503296 9.401 9.997 840 11295 12134 9840180 115322180540
485	153719536 18240 5146044 5503296 9.401 9.997 840 45 184 116040 17969160
500	153737776 104971 5144497 5504873 9.399 10 5321 0 0 0 0
502	153842747 109673 5144497 5504873 9.399 10 5563 0 0 0 0
511	153952420 126255 5144497 5504873 9.399 10 5321 92421 97741 505926001 48116504574901
512	154078675 110531 5144497 5504873 9.399 10 5321 0 156 423400 64591360
527	154189206 104971 5144557 5504938 9.399 10 5321 0 0 0 0
529	154294177 109673 5144557 5504938 9.399 10 5563 0 0 0 0
538	154403850 126255 5144557 5504938 9.399 10 5321 92190 97510 504696850 47883050696320
539	154530105 110531 5144557 5504938 9.399 10 5321 0 188 474240 81210000
554	154640636 16800 5146170 5503344 9.402 9.997 840 0 0 0 0
556	154657436 16800 5146170 5503344 9.402 9.997 840 0 0 0 0
565	154674236 20160 5146170 5503344 9.402 9.997 840 11295 12134 9840180 115322180540
566	154694396 18240 5146170 5503344 9.402 9.997 840 87 184 121080 18634440
581	154712636 16800 5146167 5503389 9.402 9.997 840 0 0 0 0
583	154729436 16800 5146167 5503389 9.402 9.997 840 0 0 0 0
592	154746236 20160 5146167 5503389 9.402 9.997 840 11295 12134 9840180 115322180540
593	154766396 18240 5146167 5503389 9.402 9.997 840 87 184 121080 18634440
608	154784636 16800 5145840 5503359 9.401 9.997 840 0 0 0 0
610	154801436 16800 5145840 5503359 9.401 9.997 840 0 0 0 0
619	154818236 20160 5145840 5503359 9.401 9.997 840 11295 12134 9840180 115322180540
620	154838396 18120 5145840 5503359 9.401 9.997 840 74 184 111540 16464060
635	154856516 104971 5144617 5505003 9.399 10 5321 0 0 0 0
637	154961487 109673 5144617 5505003 9.399 10 5563 0 0 0 0
646	155071160 126255 5144617 5505003 9.399 10 5321 37273 42593 212483493 8497657799789
647	155197415 110531 5144617 5505003 9.399 10 5321 0 195 475080 81531720
662	155307946 16800 5146152 5503386 9.402 9.997 840 0 0 0 0
664	155324746 16800 5146152 5503386 9.402 9.997 840 0 0 0 0
673	155341546 20160 5146152 5503386 9.402 9.997 840 11295 12134 9840180 115322180540
674	155361706 18240 5146152 5503386 9.402 9.997 840 87 184 121080 18634440
689	155379946 16800 5145906 5503362 9.401 9.997 840 0 0 0 0
691	155396746 16800 5145906 5503362 9.401 9.997 840 0 0 0 0
700	155413546 20160 5145906 5503362 9.401 9.997 840 66919 67758 56564340 3809007201020
701	155433706 18120 5145906 5503362 9.401 9.997 840 55 184 107040 15447360
716	155451826 16800 5146158 5503335 9.402 9.997 840 0 0 0 0
718	155468626 16800 5146158 5503335 9.402 9.997 840 0 0 0 0
727	155485426 20160 5146158 5503335 9.402 9.997 840 11295 12134 9840180 115322180540
728	155505586 18240 5146158 5503335 9.402 9.997 840 87 184 121080 18634440
743	155523826 16800 5146161 5503380 9.402 9.997 840 0 0 0 0
745	155540626 16800 5146161 5503380 9.402 9.997 840 0 0 0 0
754	155557426 20160 5146161 5503380 9.402 9.997 840 11295 12134 9840180 115322180540
755	155577586 18240 5146161 5503380 9.402 9.997 840 87 184 121080 18634440
770	155595826 16800 5146149 5503371 9.402 9.997 840 0 0 0 0
772	155612626 16800 5146149 5503371 9.402 9.997 840 0 0 0 0
781	155629426 20160 5146149 5503371 9.402 9.997 840 11295 12134 9840180 115322180540
782	155649586 18240 5146149 5503371 9.402 9.997 840 87 184 121080 18634440
797	155667826 16800 5145768 5503338 9.401 9.997 840 0 0 0 0
799	155684626 16800 5145768 5503338 9.401 9.997 840 0 0 0 0
808	155701426 20160 5145768 5503338 9.401 9.997 840 11295 12134 9840180 115322180540
809	155721586 18240 5145768 5503338 9.401 9.997 840 73 184 119400 18365640
824	155739826 16800 5145771 5503332 9.401 9.997 840 0 0 0 0
826	155756626 16800 5145771 5503332 9.401 9.997 840 0 0 0 0
835	155773426 20160 5145771 5503332 9.401 9.997 840 11295 12134 9840180 115322180540
836	155793586 18240 5145771 5503332 9.401 9.997 840 73 184 119400 18365640
851	155811826 16800 5145627 5503341 9.401 9.997 840 0 0 0 0
853	155828626 16800 5145627 5503341 9.401 9.997 840 0 0 0 0
862	155845426 20160 5145627 5503341 9.401 9.997 840 11295 12134 9840180 115322180540
863	155865586 17760 5145627 5503341 9.401 9.997 840 46 199 76460 8796820
878	155883346 104971 5144677 5505068 9.399 10 5321 0 0 0 0
880	155988317 109673 5144677 5505068 9.399 10 5563 0 0 0 0
889	156097990 126255 5144677 5505068 9.399 10 5321 37593 42913 214186213 8634192105709
890	156224245 107991 5144677 5505068 9.399 10 5321 0 137 253620 23664540
905	156332236 16800 5146134 5503350 9.402 9.997 840 0 0 0 0
907	156349036 16800 5146134 5503350 9.402 9.997 840 0 0 0 0
916	156365836 20160 5146134 5503350 9.402 9.997 840 11295 12134 9840180 115322180540
917	156385996 18240 5146134 5503350 9.402 9.997 840 87 184 121080 18634440
