file 6013270 1589562777                                         
version 2
run CAIN-29-20200515-14:09:08-16488
attr configname CAIN
attr datetime 20200515-14:09:08
attr dist 200
attr experiment CAIN
attr inifile omnetpp.ini
attr iterationvars "$numUe=20, $pwr=-50, $dist=200, $mob=\"./movements/RWPRPGM-0.5.movements\""
attr iterationvars2 "$numUe=20, $pwr=-50, $dist=200, $mob=\"./movements/RWPRPGM-0.5.movements\", $repetition=4"
attr measurement "$numUe=20, $pwr=-50, $dist=200, $mob=\"./movements/RWPRPGM-0.5.movements\""
attr mob "\"./movements/RWPRPGM-0.5.movements\""
attr network lte.simulations.networks.CAIN
attr numUe 20
attr processid 16488
attr pwr -50
attr repetition 4
attr replication #4
attr resultdir results
attr runnumber 29
attr seedset 4
param **.**.amcMode "\"AUTO\""
param **.amcMode "\"D2D\""
param **.cainNetwork true
param **.channelControl.alpha 1.0
param **.channelControl.carrierFrequency 2100e+6Hz
param **.channelControl.pMax 10W
param **.d2dCqi 7
param **.deployer.numRbDl 50
param **.deployer.numRbUl 50
param **.distThresh ${dist=200}
param **.fbDelay 1
param **.feedbackComputation "xmldoc(\"config_channel.xml\")"
param **.mobility.constraintAreaMaxX 1000m
param **.mobility.constraintAreaMaxY 1000m
param **.mobility.constraintAreaMaxZ 0m
param **.mobility.constraintAreaMinX 0m
param **.mobility.constraintAreaMinY 0m
param **.mobility.constraintAreaMinZ 0m
param **.nic.phy.channelModel "xmldoc(\"config_channel.xml\")"
param **.numBands 50
param **.pwrThresh "${pwr= -50}"
param **.qtdThresh 3
param **.rbAllocationType "\"localized\""
param **.routingRecorder.enabled false
param **.tcpApp[*].tClose -1s
param **.ueD2DTx[*].mobility.changeAngleBy "normal(0deg, 30deg)"
param **.ueD2DTx[*].mobility.changeInterval "normal(5s, 0.1s)"
param **.ueD2DTx[*].mobility.nodeId -1
param **.ueD2DTx[*].mobility.speed "normal(2mps, 0.01mps)"
param **.ueD2DTx[*].mobility.traceFile "${mob=\"./movements/RWP-0.0.movements\",\"./movements/RWP-0.5.movements\",\"./movements/RPGM-0.0.movements\",\"./movements/RPGM-0.5.movements\",\"./movements/RWPRPGM-0.0.movements\",\"./movements/RWPRPGM-0.5.movements\"}"
param **.ueD2DTx[*].mobilityType "\"BonnMotionMobility\""
param **.usePreconfiguredTxParams false
param *.eNodeB*.numX2Apps 1
param *.eNodeB*.x2App[*].server.localPort "5000 + ancestorIndex(1)"
param *.eNodeB.d2dCapable false
param *.eNodeB.mobility.initFromDisplayString false
param *.eNodeB.mobility.initialX 300m
param *.eNodeB.mobility.initialY 300m
param *.eNodeB.nic.phy.enableD2DCqiReporting true
param *.eNodeB.txPower 19952.62315mw
param *.eNodeB.x2App[0].client.connectAddress "\"eNodeB1%x2ppp0\""
param *.eNodeB1.d2dCapable true
param *.eNodeB1.mobility.initFromDisplayString false
param *.eNodeB1.mobility.initialX 700m
param *.eNodeB1.mobility.initialY 300m
param *.eNodeB1.nic.phy.enableD2DCqiReporting true
param *.eNodeB1.txPower 19952.62315mw
param *.eNodeB1.x2App[0].client.connectAddress "\"eNodeB%x2ppp0\""
param *.extCell[*].bandAllocationType "\"FULL_ALLOC\""
param *.extCell[*].bandUtilization 0.5
param *.extCell[*].txDirection "\"ANISOTROPIC\""
param *.extCell[*].txPower 20
param *.extCell[0].position_x 100m
param *.extCell[0].position_y 600m
param *.extCell[0].txAngle 315
param *.extCell[1].position_x 600m
param *.extCell[1].position_y 600m
param *.extCell[1].txAngle 225
param *.numExtCells 2
param *.numUeCell 0
param *.numUeD2DRx 1
param *.numUeD2DTx 1
param *.ue*.macCellId 1
param *.ue*.masterId 1
param *.ue*.mobility.initFromDisplayString false
param *.ue*[0].macCellId 1
param *.ue*[0].masterId 1
param *.ue*[0].mobility.initFromDisplayString false
param *.ueD2D*.numTcpApps 1
param *.ueD2D*[*].d2dCapable true
param *.ueD2D*[0].d2dCapable false
param *.ueD2D*[0].numTcpApps 1
param *.ueD2DRx[0].mobility.initialX 310m
param *.ueD2DRx[0].mobility.initialY 350m
param *.ueD2DRx[0].tcpApp[*].localPort 1000
param *.ueD2DRx[0].tcpApp[*].typename "\"TCPSinkApp\""
param *.ueD2DTx*.nic.d2dPeerAddresses "\"ueD2DTx[1]\""
param *.ueD2DTx*.tcpApp[*].connectAddress "\"ueD2DTx[0]\""
param *.ueD2DTx*.tcpApp[*].localAddress "\"ueD2DTx\""
param *.ueD2DTx*.tcpApp[*].localPort 1000
param *.ueD2DTx*.tcpApp[*].sendBytes 1GiB
param *.ueD2DTx*.tcpApp[*].typename "\"TCPSessionApp\""
param *.ueD2DTx*.tcpApp[0].active true
param *.ueD2DTx*.tcpApp[0].connectPort 1000
param *.ueD2DTx*.tcpApp[0].tOpen uniform(0.010s,0.1s)
param *.ueD2DTx*.tcpApp[0].tSend uniform(0.15s,0.5s)
param *.ueD2DTx[0].mobility.initialX 290m
param *.ueD2DTx[0].mobility.initialY 350m
param *.ueD2DTx[0].tcpApp[*].localPort 1000
param *.ueD2DTx[0].tcpApp[*].sendBytes 1GiB
param *.ueD2DTx[0].tcpApp[*].typename "\"TCPSessionApp\""
param *.ueD2DTx[0].tcpApp[0].active true
param *.ueD2DTx[0].tcpApp[0].connectAddress "\"ueD2DRx[0]\""
param *.ueD2DTx[0].tcpApp[0].connectPort 1000
param *.ueD2DTx[0].tcpApp[0].localAddress "\"ueD2DTx[0]\""
param *.ueD2DTx[0].tcpApp[0].tOpen uniform(0.010s,0.1s)
param *.ueD2DTx[0].tcpApp[0].tSend uniform(0.15s,0.5s)

vector 8  CAIN.server.ppp[0].queue  queueLength:vector  ETV
attr interpolationmode  sample-hold
attr title  "queue length, vector"
vector 9  CAIN.server.ppp[0].ppp  txState:vector  ETV
attr interpolationmode  sample-hold
attr title  "tx state, vector"
vector 24  CAIN.router.ppp[0].queue  queueLength:vector  ETV
attr interpolationmode  sample-hold
attr title  "queue length, vector"
vector 25  CAIN.router.ppp[0].ppp  txState:vector  ETV
attr interpolationmode  sample-hold
attr title  "tx state, vector"
vector 35  CAIN.router.ppp[1].queue  queueLength:vector  ETV
attr interpolationmode  sample-hold
attr title  "queue length, vector"
vector 36  CAIN.router.ppp[1].ppp  txState:vector  ETV
attr interpolationmode  sample-hold
attr title  "tx state, vector"
vector 56  CAIN.pgw.ppp[0].queue  queueLength:vector  ETV
attr interpolationmode  sample-hold
attr title  "queue length, vector"
vector 57  CAIN.pgw.ppp[0].ppp  txState:vector  ETV
attr interpolationmode  sample-hold
attr title  "tx state, vector"
vector 67  CAIN.pgw.ppp[1].queue  queueLength:vector  ETV
attr interpolationmode  sample-hold
attr title  "queue length, vector"
vector 68  CAIN.pgw.ppp[1].ppp  txState:vector  ETV
attr interpolationmode  sample-hold
attr title  "tx state, vector"
vector 78  CAIN.pgw.pppInterface.queue  queueLength:vector  ETV
attr interpolationmode  sample-hold
attr title  "queue length, vector"
vector 79  CAIN.pgw.pppInterface.ppp  txState:vector  ETV
attr interpolationmode  sample-hold
attr title  "tx state, vector"
vector 120  CAIN.eNodeB.pppIf.queue  queueLength:vector  ETV
attr interpolationmode  sample-hold
attr title  "queue length, vector"
vector 121  CAIN.eNodeB.pppIf.ppp  txState:vector  ETV
attr interpolationmode  sample-hold
attr title  "tx state, vector"
vector 131  CAIN.eNodeB.x2ppp[0].queue  queueLength:vector  ETV
attr interpolationmode  sample-hold
attr title  "queue length, vector"
vector 132  CAIN.eNodeB.x2ppp[0].ppp  txState:vector  ETV
attr interpolationmode  sample-hold
attr title  "tx state, vector"
vector 178  CAIN.eNodeB1.pppIf.queue  queueLength:vector  ETV
attr interpolationmode  sample-hold
attr title  "queue length, vector"
vector 179  CAIN.eNodeB1.pppIf.ppp  txState:vector  ETV
attr interpolationmode  sample-hold
attr title  "tx state, vector"
vector 189  CAIN.eNodeB1.x2ppp[0].queue  queueLength:vector  ETV
attr interpolationmode  sample-hold
attr title  "queue length, vector"
vector 190  CAIN.eNodeB1.x2ppp[0].ppp  txState:vector  ETV
attr interpolationmode  sample-hold
attr title  "tx state, vector"
vector 231  CAIN.ueD2DTx[0].nic.phy  servingCell:vector  ETV
attr source  servingCell
attr title  "ID of the serving eNodeB for the UE, vector"
attr unit  ""
vector 263  CAIN.ueD2DTx[1].nic.phy  servingCell:vector  ETV
attr source  servingCell
attr title  "ID of the serving eNodeB for the UE, vector"
attr unit  ""
vector 295  CAIN.ueD2DTx[2].nic.phy  servingCell:vector  ETV
attr source  servingCell
attr title  "ID of the serving eNodeB for the UE, vector"
attr unit  ""
vector 327  CAIN.ueD2DTx[3].nic.phy  servingCell:vector  ETV
attr source  servingCell
attr title  "ID of the serving eNodeB for the UE, vector"
attr unit  ""
vector 359  CAIN.ueD2DTx[4].nic.phy  servingCell:vector  ETV
attr source  servingCell
attr title  "ID of the serving eNodeB for the UE, vector"
attr unit  ""
vector 391  CAIN.ueD2DTx[5].nic.phy  servingCell:vector  ETV
attr source  servingCell
attr title  "ID of the serving eNodeB for the UE, vector"
attr unit  ""
vector 423  CAIN.ueD2DTx[6].nic.phy  servingCell:vector  ETV
attr source  servingCell
attr title  "ID of the serving eNodeB for the UE, vector"
attr unit  ""
vector 455  CAIN.ueD2DTx[7].nic.phy  servingCell:vector  ETV
attr source  servingCell
attr title  "ID of the serving eNodeB for the UE, vector"
attr unit  ""
vector 487  CAIN.ueD2DTx[8].nic.phy  servingCell:vector  ETV
attr source  servingCell
attr title  "ID of the serving eNodeB for the UE, vector"
attr unit  ""
vector 519  CAIN.ueD2DTx[9].nic.phy  servingCell:vector  ETV
attr source  servingCell
attr title  "ID of the serving eNodeB for the UE, vector"
attr unit  ""
vector 551  CAIN.ueD2DTx[10].nic.phy  servingCell:vector  ETV
attr source  servingCell
attr title  "ID of the serving eNodeB for the UE, vector"
attr unit  ""
vector 583  CAIN.ueD2DTx[11].nic.phy  servingCell:vector  ETV
attr source  servingCell
attr title  "ID of the serving eNodeB for the UE, vector"
attr unit  ""
vector 615  CAIN.ueD2DTx[12].nic.phy  servingCell:vector  ETV
attr source  servingCell
attr title  "ID of the serving eNodeB for the UE, vector"
attr unit  ""
vector 647  CAIN.ueD2DTx[13].nic.phy  servingCell:vector  ETV
attr source  servingCell
attr title  "ID of the serving eNodeB for the UE, vector"
attr unit  ""
vector 679  CAIN.ueD2DTx[14].nic.phy  servingCell:vector  ETV
attr source  servingCell
attr title  "ID of the serving eNodeB for the UE, vector"
attr unit  ""
vector 711  CAIN.ueD2DTx[15].nic.phy  servingCell:vector  ETV
attr source  servingCell
attr title  "ID of the serving eNodeB for the UE, vector"
attr unit  ""
vector 743  CAIN.ueD2DTx[16].nic.phy  servingCell:vector  ETV
attr source  servingCell
attr title  "ID of the serving eNodeB for the UE, vector"
attr unit  ""
vector 775  CAIN.ueD2DTx[17].nic.phy  servingCell:vector  ETV
attr source  servingCell
attr title  "ID of the serving eNodeB for the UE, vector"
attr unit  ""
vector 807  CAIN.ueD2DTx[18].nic.phy  servingCell:vector  ETV
attr source  servingCell
attr title  "ID of the serving eNodeB for the UE, vector"
attr unit  ""
vector 839  CAIN.ueD2DTx[19].nic.phy  servingCell:vector  ETV
attr source  servingCell
attr title  "ID of the serving eNodeB for the UE, vector"
attr unit  ""
vector 863  CAIN.eNodeB.sctp  "Throughput of Association 3"  ETV
vector 885  CAIN.eNodeB1.sctp  "Throughput of Association 4"  ETV
vector 907  CAIN.eNodeB.sctp  "Throughput of Association 1"  ETV
vector 927  CAIN.eNodeB.sctp  "Fast Recovery State 1:10.0.5.2"  ETV
vector 956  CAIN.eNodeB1.sctp  "Throughput of Association 2"  ETV
vector 976  CAIN.eNodeB1.sctp  "Fast Recovery State 2:10.0.5.1"  ETV
vector 128  CAIN.eNodeB.x2ppp[0].queue  rcvdPk:vector(packetBytes)  ETV
attr interpolationmode  none
attr title  "received packets, vector(packetBytes)"
vector 130  CAIN.eNodeB.x2ppp[0].queue  queueingTime:vector  ETV
attr interpolationmode  none
attr title  "queueing time, vector"
vector 186  CAIN.eNodeB1.x2ppp[0].queue  rcvdPk:vector(packetBytes)  ETV
attr interpolationmode  none
attr title  "received packets, vector(packetBytes)"
vector 188  CAIN.eNodeB1.x2ppp[0].queue  queueingTime:vector  ETV
attr interpolationmode  none
attr title  "queueing time, vector"
vector 137  CAIN.eNodeB.x2ppp[0].ppp  rcvdPkFromHL:vector(packetBytes)  ETV
attr interpolationmode  none
attr source  packetReceivedFromUpper
attr title  "packets received from higher layer, vector(packetBytes)"
vector 133  CAIN.eNodeB.x2ppp[0].ppp  txPk:vector(packetBytes)  ETV
attr interpolationmode  none
attr source  packetSentToLower
attr title  "packets transmitted, vector(packetBytes)"
vector 195  CAIN.eNodeB1.x2ppp[0].ppp  rcvdPkFromHL:vector(packetBytes)  ETV
attr interpolationmode  none
attr source  packetReceivedFromUpper
attr title  "packets received from higher layer, vector(packetBytes)"
vector 191  CAIN.eNodeB1.x2ppp[0].ppp  txPk:vector(packetBytes)  ETV
attr interpolationmode  none
attr source  packetSentToLower
attr title  "packets transmitted, vector(packetBytes)"
vector 192  CAIN.eNodeB1.x2ppp[0].ppp  rxPkOk:vector(packetBytes)  ETV
attr interpolationmode  none
attr source  rxPkOk
attr title  "packets received OK, vector(packetBytes)"
vector 196  CAIN.eNodeB1.x2ppp[0].ppp  passedUpPk:vector(packetBytes)  ETV
attr interpolationmode  none
attr source  packetSentToUpper
attr title  "packets passed to higher layer, vector(packetBytes)"
vector 134  CAIN.eNodeB.x2ppp[0].ppp  rxPkOk:vector(packetBytes)  ETV
attr interpolationmode  none
attr source  rxPkOk
attr title  "packets received OK, vector(packetBytes)"
vector 138  CAIN.eNodeB.x2ppp[0].ppp  passedUpPk:vector(packetBytes)  ETV
attr interpolationmode  none
attr source  packetSentToUpper
attr title  "packets passed to higher layer, vector(packetBytes)"
vector 1005  CAIN.eNodeB1.sctp  "Throughput of Association 4"  ETV
vector 882  CAIN.eNodeB1.sctp  "Peer Rwnd 4"  ETV
vector 1025  CAIN.eNodeB1.sctp  "Fast Recovery State 5:10.0.4.1"  ETV
vector 1052  CAIN.eNodeB1.sctp  "Fast Recovery State 5:10.0.2.2"  ETV
vector 1079  CAIN.eNodeB1.sctp  "Fast Recovery State 5:10.0.5.1"  ETV
vector 1108  CAIN.eNodeB.sctp  "Throughput of Association 3"  ETV
vector 860  CAIN.eNodeB.sctp  "Peer Rwnd 3"  ETV
vector 1128  CAIN.eNodeB.sctp  "Fast Recovery State 6:10.0.4.2"  ETV
vector 1155  CAIN.eNodeB.sctp  "Fast Recovery State 6:10.0.3.2"  ETV
vector 1182  CAIN.eNodeB.sctp  "Fast Recovery State 6:10.0.5.2"  ETV
vector 904  CAIN.eNodeB.sctp  "Peer Rwnd 1"  ETV
vector 1209  CAIN.eNodeB.sctp  "Fast Recovery State 1:10.0.4.2"  ETV
vector 1236  CAIN.eNodeB.sctp  "Fast Recovery State 1:10.0.3.2"  ETV
vector 953  CAIN.eNodeB1.sctp  "Peer Rwnd 2"  ETV
vector 1263  CAIN.eNodeB1.sctp  "Fast Recovery State 2:10.0.4.1"  ETV
vector 1290  CAIN.eNodeB1.sctp  "Fast Recovery State 2:10.0.2.2"  ETV
vector 1035  CAIN.eNodeB1.sctp  "Slow Start Threshold 5:10.0.2.2"  ETV
vector 1036  CAIN.eNodeB1.sctp  "Congestion Window 5:10.0.2.2"  ETV
vector 1037  CAIN.eNodeB1.sctp  "Bandwidth 5:10.0.2.2"  ETV
vector 1040  CAIN.eNodeB1.sctp  "HB Sent 5:10.0.2.2"  ETV
vector 1033  CAIN.eNodeB1.sctp  "RTO 5:10.0.2.2"  ETV
vector 1008  CAIN.eNodeB1.sctp  "Slow Start Threshold 5:10.0.4.1"  ETV
vector 1009  CAIN.eNodeB1.sctp  "Congestion Window 5:10.0.4.1"  ETV
vector 1010  CAIN.eNodeB1.sctp  "Bandwidth 5:10.0.4.1"  ETV
vector 1013  CAIN.eNodeB1.sctp  "HB Sent 5:10.0.4.1"  ETV
vector 1006  CAIN.eNodeB1.sctp  "RTO 5:10.0.4.1"  ETV
vector 1062  CAIN.eNodeB1.sctp  "Slow Start Threshold 5:10.0.5.1"  ETV
vector 1063  CAIN.eNodeB1.sctp  "Congestion Window 5:10.0.5.1"  ETV
vector 1064  CAIN.eNodeB1.sctp  "Bandwidth 5:10.0.5.1"  ETV
vector 1060  CAIN.eNodeB1.sctp  "RTO 5:10.0.5.1"  ETV
vector 1138  CAIN.eNodeB.sctp  "Slow Start Threshold 6:10.0.3.2"  ETV
vector 1139  CAIN.eNodeB.sctp  "Congestion Window 6:10.0.3.2"  ETV
vector 1140  CAIN.eNodeB.sctp  "Bandwidth 6:10.0.3.2"  ETV
vector 1143  CAIN.eNodeB.sctp  "HB Sent 6:10.0.3.2"  ETV
vector 1136  CAIN.eNodeB.sctp  "RTO 6:10.0.3.2"  ETV
vector 1111  CAIN.eNodeB.sctp  "Slow Start Threshold 6:10.0.4.2"  ETV
vector 1112  CAIN.eNodeB.sctp  "Congestion Window 6:10.0.4.2"  ETV
vector 1113  CAIN.eNodeB.sctp  "Bandwidth 6:10.0.4.2"  ETV
vector 1116  CAIN.eNodeB.sctp  "HB Sent 6:10.0.4.2"  ETV
vector 1109  CAIN.eNodeB.sctp  "RTO 6:10.0.4.2"  ETV
vector 1165  CAIN.eNodeB.sctp  "Slow Start Threshold 6:10.0.5.2"  ETV
vector 1166  CAIN.eNodeB.sctp  "Congestion Window 6:10.0.5.2"  ETV
vector 1167  CAIN.eNodeB.sctp  "Bandwidth 6:10.0.5.2"  ETV
vector 1163  CAIN.eNodeB.sctp  "RTO 6:10.0.5.2"  ETV
vector 916  CAIN.eNodeB.sctp  "HB ACK Sent 1:10.0.5.2"  ETV
vector 917  CAIN.eNodeB.sctp  "HB Received 1:10.0.5.2"  ETV
vector 965  CAIN.eNodeB1.sctp  "HB ACK Sent 2:10.0.5.1"  ETV
vector 966  CAIN.eNodeB1.sctp  "HB Received 2:10.0.5.1"  ETV
vector 1219  CAIN.eNodeB.sctp  "Slow Start Threshold 1:10.0.3.2"  ETV
vector 1220  CAIN.eNodeB.sctp  "Congestion Window 1:10.0.3.2"  ETV
vector 1221  CAIN.eNodeB.sctp  "Bandwidth 1:10.0.3.2"  ETV
vector 1224  CAIN.eNodeB.sctp  "HB Sent 1:10.0.3.2"  ETV
vector 1217  CAIN.eNodeB.sctp  "RTO 1:10.0.3.2"  ETV
vector 1192  CAIN.eNodeB.sctp  "Slow Start Threshold 1:10.0.4.2"  ETV
vector 1193  CAIN.eNodeB.sctp  "Congestion Window 1:10.0.4.2"  ETV
vector 1194  CAIN.eNodeB.sctp  "Bandwidth 1:10.0.4.2"  ETV
vector 1197  CAIN.eNodeB.sctp  "HB Sent 1:10.0.4.2"  ETV
vector 1190  CAIN.eNodeB.sctp  "RTO 1:10.0.4.2"  ETV
vector 910  CAIN.eNodeB.sctp  "Slow Start Threshold 1:10.0.5.2"  ETV
vector 911  CAIN.eNodeB.sctp  "Congestion Window 1:10.0.5.2"  ETV
vector 912  CAIN.eNodeB.sctp  "Bandwidth 1:10.0.5.2"  ETV
vector 908  CAIN.eNodeB.sctp  "RTO 1:10.0.5.2"  ETV
vector 1273  CAIN.eNodeB1.sctp  "Slow Start Threshold 2:10.0.2.2"  ETV
vector 1274  CAIN.eNodeB1.sctp  "Congestion Window 2:10.0.2.2"  ETV
vector 1275  CAIN.eNodeB1.sctp  "Bandwidth 2:10.0.2.2"  ETV
vector 1278  CAIN.eNodeB1.sctp  "HB Sent 2:10.0.2.2"  ETV
vector 1271  CAIN.eNodeB1.sctp  "RTO 2:10.0.2.2"  ETV
vector 1246  CAIN.eNodeB1.sctp  "Slow Start Threshold 2:10.0.4.1"  ETV
vector 1247  CAIN.eNodeB1.sctp  "Congestion Window 2:10.0.4.1"  ETV
vector 1248  CAIN.eNodeB1.sctp  "Bandwidth 2:10.0.4.1"  ETV
vector 1251  CAIN.eNodeB1.sctp  "HB Sent 2:10.0.4.1"  ETV
vector 1244  CAIN.eNodeB1.sctp  "RTO 2:10.0.4.1"  ETV
vector 959  CAIN.eNodeB1.sctp  "Slow Start Threshold 2:10.0.5.1"  ETV
vector 960  CAIN.eNodeB1.sctp  "Congestion Window 2:10.0.5.1"  ETV
vector 961  CAIN.eNodeB1.sctp  "Bandwidth 2:10.0.5.1"  ETV
vector 957  CAIN.eNodeB1.sctp  "RTO 2:10.0.5.1"  ETV
vector 1173  CAIN.eNodeB.sctp  "HB ACK Received 6:10.0.5.2"  ETV
vector 1164  CAIN.eNodeB.sctp  "RTT 6:10.0.5.2"  ETV
vector 1070  CAIN.eNodeB1.sctp  "HB ACK Received 5:10.0.5.1"  ETV
vector 1061  CAIN.eNodeB1.sctp  "RTT 5:10.0.5.1"  ETV
vector 1171  CAIN.eNodeB.sctp  "HB ACK Sent 6:10.0.5.2"  ETV
vector 1172  CAIN.eNodeB.sctp  "HB Received 6:10.0.5.2"  ETV
vector 1068  CAIN.eNodeB1.sctp  "HB ACK Sent 5:10.0.5.1"  ETV
vector 1069  CAIN.eNodeB1.sctp  "HB Received 5:10.0.5.1"  ETV
vector 967  CAIN.eNodeB1.sctp  "HB ACK Received 2:10.0.5.1"  ETV
vector 958  CAIN.eNodeB1.sctp  "RTT 2:10.0.5.1"  ETV
vector 918  CAIN.eNodeB.sctp  "HB ACK Received 1:10.0.5.2"  ETV
vector 909  CAIN.eNodeB.sctp  "RTT 1:10.0.5.2"  ETV
vector 96  CAIN.eNodeB.nic.mac  receivedPacketFromLowerLayer:vector(packetBytes)  ETV
attr interpolationmode  none
attr source  receivedPacketFromLowerLayer
vector 1305  CAIN.eNodeB.sctp  "SendQueue of Association 6"  ETV
vector 1168  CAIN.eNodeB.sctp  "TSN Sent 6:10.0.5.2"  ETV
vector 1175  CAIN.eNodeB.sctp  "Outstanding Bytes 6:10.0.5.2"  ETV
vector 848  CAIN.eNodeB.sctp  "Outstanding Bytes 3:Total"  ETV
vector 1174  CAIN.eNodeB.sctp  "Queued Sent Bytes 6:10.0.5.2"  ETV
vector 847  CAIN.eNodeB.sctp  "Queued Sent Bytes 3:Total"  ETV
vector 963  CAIN.eNodeB1.sctp  "TSN Received 2:10.0.5.1"  ETV
vector 939  CAIN.eNodeB1.sctp  "Queued Received Bytes 2:Total"  ETV
vector 935  CAIN.eNodeB1.sctp  "Advertised Receiver Window 2"  ETV
vector 944  CAIN.eNodeB1.sctp  "Number of Total Gap Blocks Stored 2"  ETV
vector 945  CAIN.eNodeB1.sctp  "Number of Revokable Gap Blocks Stored 2"  ETV
vector 946  CAIN.eNodeB1.sctp  "Number of Non-Revokable Gap Blocks Stored 2"  ETV
vector 947  CAIN.eNodeB1.sctp  "Number of Duplicate TSNs Stored 2"  ETV
vector 951  CAIN.eNodeB1.sctp  "Length of SACK Sent 2"  ETV
vector 948  CAIN.eNodeB1.sctp  "Number of Revokable Gap Blocks Sent 2"  ETV
vector 949  CAIN.eNodeB1.sctp  "Number of Non-Revokable Gap Blocks Sent 2"  ETV
vector 950  CAIN.eNodeB1.sctp  "Number of Duplicate TSNs Sent 2"  ETV
vector 955  CAIN.eNodeB1.sctp  "End to End Delay of Association 2"  ETV
vector 199  CAIN.eNodeB1.x2App[0].client  rcvdPk:vector(packetBytes)  ETV
attr interpolationmode  none
attr source  rcvdPk
attr title  "packets received, vector(packetBytes)"
vector 1304  CAIN.eNodeB.sctp  "Number of Gap Blocks in Last SACK of Association 6"  ETV
vector 849  CAIN.eNodeB.sctp  "Number of Revokable Gap Blocks in SACK 3"  ETV
vector 850  CAIN.eNodeB.sctp  "Number of Non-Revokable Gap Blocks in SACK 3"  ETV
vector 1185  CAIN.eNodeB.sctp  "TSN Acked CumAck 6:10.0.5.2"  ETV
vector 1151  CAIN.eNodeB.sctp  "Number of Gap Acked Chunks in Last SACK 6:10.0.3.2"  ETV
vector 1152  CAIN.eNodeB.sctp  "Number of Non-Revokable Gap Acked Chunks in Last SACK 6:10.0.3.2"  ETV
vector 1153  CAIN.eNodeB.sctp  "Number of Gap Missed Chunks in Last SACK 6:10.0.3.2"  ETV
vector 1124  CAIN.eNodeB.sctp  "Number of Gap Acked Chunks in Last SACK 6:10.0.4.2"  ETV
vector 1125  CAIN.eNodeB.sctp  "Number of Non-Revokable Gap Acked Chunks in Last SACK 6:10.0.4.2"  ETV
vector 1126  CAIN.eNodeB.sctp  "Number of Gap Missed Chunks in Last SACK 6:10.0.4.2"  ETV
vector 1178  CAIN.eNodeB.sctp  "Number of Gap Acked Chunks in Last SACK 6:10.0.5.2"  ETV
vector 1179  CAIN.eNodeB.sctp  "Number of Non-Revokable Gap Acked Chunks in Last SACK 6:10.0.5.2"  ETV
vector 1180  CAIN.eNodeB.sctp  "Number of Gap Missed Chunks in Last SACK 6:10.0.5.2"  ETV
vector 859  CAIN.eNodeB.sctp  "Arwnd in Last SACK 3"  ETV
vector 1187  CAIN.eNodeB.sctp  "TSN PseudoCumAck 6:10.0.5.2"  ETV
vector 1188  CAIN.eNodeB.sctp  "TSN RTXPseudoCumAck 6:10.0.5.2"  ETV
vector 1181  CAIN.eNodeB.sctp  "Partial Bytes Acked 6:10.0.5.2"  ETV
vector 1333  CAIN.ueD2DTx[16].tcp  tcpRcvQueueBytes  ETV
vector 1320  CAIN.ueD2DTx[16].tcp  "advertised window"  ETV
vector 1319  CAIN.ueD2DTx[16].tcp  "receive window"  ETV
vector 1322  CAIN.ueD2DTx[16].tcp  "sent ack"  ETV
vector 717  CAIN.ueD2DTx[16].nic.pdcpRrc  receivedPacketFromUpperLayer:vector(packetBytes)  ETV
attr interpolationmode  none
attr source  receivedPacketFromUpperLayer
vector 720  CAIN.ueD2DTx[16].nic.pdcpRrc  sentPacketToLowerLayer:vector(packetBytes)  ETV
attr interpolationmode  none
attr source  sentPacketToLowerLayer
vector 721  CAIN.ueD2DTx[16].nic.mac  receivedPacketFromUpperLayer:vector(packetBytes)  ETV
attr interpolationmode  none
attr source  receivedPacketFromUpperLayer
vector 730  CAIN.ueD2DTx[16].nic.mac  CainMessageSent:vector  ETV
attr interpolationmode  none
attr title  "# of Sent CAIN message, vector"
vector 724  CAIN.ueD2DTx[16].nic.mac  sentPacketToLowerLayer:vector(packetBytes)  ETV
attr interpolationmode  none
attr source  sentPacketToLowerLayer
vector 786  CAIN.ueD2DTx[18].nic.mac  receivedPacketFromLowerLayer:vector(packetBytes)  ETV
attr interpolationmode  none
attr source  receivedPacketFromLowerLayer
vector 788  CAIN.ueD2DTx[18].nic.mac  sentPacketToLowerLayer:vector(packetBytes)  ETV
attr interpolationmode  none
attr source  sentPacketToLowerLayer
vector 111  CAIN.eNodeB.nic.mac  racpkt:vector  ETV
attr interpolationmode  none
attr title  "eNB received racpkt message, vector"
vector 112  CAIN.eNodeB.nic.mac  racDistanceSignal:vector  ETV
attr interpolationmode  none
attr title  "Rac distance to enb, vector"
vector 113  CAIN.eNodeB.nic.mac  racServedDevsSignal:vector  ETV
attr interpolationmode  none
attr title  "# of devices served on rac arriavall, vector"
vector 106  CAIN.eNodeB.nic.mac  DistanceSignal:vector  ETV
attr interpolationmode  none
attr title  "Distance to enb, vector"
vector 100  CAIN.eNodeB.nic.mac  CainMessage:vector  ETV
attr interpolationmode  none
attr title  "eNB received CAIN message, vector"
vector 98  CAIN.eNodeB.nic.mac  sentPacketToLowerLayer:vector(packetBytes)  ETV
attr interpolationmode  none
attr source  sentPacketToLowerLayer
vector 792  CAIN.ueD2DTx[18].nic.mac  DropedCainMessage:vector  ETV
attr interpolationmode  none
attr title  "Droped CAIN message due to RB not available, vector"
vector 1357  CAIN.ueD2DTx[3].tcp  tcpRcvQueueBytes  ETV
vector 1344  CAIN.ueD2DTx[3].tcp  "advertised window"  ETV
vector 1343  CAIN.ueD2DTx[3].tcp  "receive window"  ETV
vector 1346  CAIN.ueD2DTx[3].tcp  "sent ack"  ETV
vector 301  CAIN.ueD2DTx[3].nic.pdcpRrc  receivedPacketFromUpperLayer:vector(packetBytes)  ETV
attr interpolationmode  none
attr source  receivedPacketFromUpperLayer
vector 304  CAIN.ueD2DTx[3].nic.pdcpRrc  sentPacketToLowerLayer:vector(packetBytes)  ETV
attr interpolationmode  none
attr source  sentPacketToLowerLayer
vector 305  CAIN.ueD2DTx[3].nic.mac  receivedPacketFromUpperLayer:vector(packetBytes)  ETV
attr interpolationmode  none
attr source  receivedPacketFromUpperLayer
vector 315  CAIN.ueD2DTx[3].nic.mac  CainHopMessageSent:vector  ETV
attr interpolationmode  none
attr title  "# of Sent CAIN hop message, vector"
vector 308  CAIN.ueD2DTx[3].nic.mac  sentPacketToLowerLayer:vector(packetBytes)  ETV
attr interpolationmode  none
attr source  sentPacketToLowerLayer
vector 530  CAIN.ueD2DTx[10].nic.mac  receivedPacketFromLowerLayer:vector(packetBytes)  ETV
attr interpolationmode  none
attr source  receivedPacketFromLowerLayer
vector 532  CAIN.ueD2DTx[10].nic.mac  sentPacketToLowerLayer:vector(packetBytes)  ETV
attr interpolationmode  none
attr source  sentPacketToLowerLayer
vector 101  CAIN.eNodeB.nic.mac  CainHopMessage:vector  ETV
attr interpolationmode  none
attr title  "eNB received CAIN hop message, vector"
vector 793  CAIN.ueD2DTx[18].nic.mac  DropedHopMessage:vector  ETV
attr interpolationmode  none
attr title  "Droped Hop CAIN message due to RB not available, vector"
vector 1381  CAIN.ueD2DTx[7].tcp  tcpRcvQueueBytes  ETV
vector 1368  CAIN.ueD2DTx[7].tcp  "advertised window"  ETV
vector 1367  CAIN.ueD2DTx[7].tcp  "receive window"  ETV
vector 1370  CAIN.ueD2DTx[7].tcp  "sent ack"  ETV
vector 429  CAIN.ueD2DTx[7].nic.pdcpRrc  receivedPacketFromUpperLayer:vector(packetBytes)  ETV
attr interpolationmode  none
attr source  receivedPacketFromUpperLayer
vector 432  CAIN.ueD2DTx[7].nic.pdcpRrc  sentPacketToLowerLayer:vector(packetBytes)  ETV
attr interpolationmode  none
attr source  sentPacketToLowerLayer
vector 433  CAIN.ueD2DTx[7].nic.mac  receivedPacketFromUpperLayer:vector(packetBytes)  ETV
attr interpolationmode  none
attr source  receivedPacketFromUpperLayer
vector 436  CAIN.ueD2DTx[7].nic.mac  sentPacketToLowerLayer:vector(packetBytes)  ETV
attr interpolationmode  none
attr source  sentPacketToLowerLayer
vector 1405  CAIN.ueD2DTx[18].tcp  tcpRcvQueueBytes  ETV
vector 1392  CAIN.ueD2DTx[18].tcp  "advertised window"  ETV
vector 1391  CAIN.ueD2DTx[18].tcp  "receive window"  ETV
vector 1394  CAIN.ueD2DTx[18].tcp  "sent ack"  ETV
vector 781  CAIN.ueD2DTx[18].nic.pdcpRrc  receivedPacketFromUpperLayer:vector(packetBytes)  ETV
attr interpolationmode  none
attr source  receivedPacketFromUpperLayer
vector 784  CAIN.ueD2DTx[18].nic.pdcpRrc  sentPacketToLowerLayer:vector(packetBytes)  ETV
attr interpolationmode  none
attr source  sentPacketToLowerLayer
vector 785  CAIN.ueD2DTx[18].nic.mac  receivedPacketFromUpperLayer:vector(packetBytes)  ETV
attr interpolationmode  none
attr source  receivedPacketFromUpperLayer
vector 434  CAIN.ueD2DTx[7].nic.mac  receivedPacketFromLowerLayer:vector(packetBytes)  ETV
attr interpolationmode  none
attr source  receivedPacketFromLowerLayer
vector 435  CAIN.ueD2DTx[7].nic.mac  sentPacketToUpperLayer:vector(packetBytes)  ETV
attr interpolationmode  none
attr source  sentPacketToUpperLayer
vector 1429  CAIN.ueD2DTx[10].tcp  tcpRcvQueueBytes  ETV
vector 1416  CAIN.ueD2DTx[10].tcp  "advertised window"  ETV
vector 1415  CAIN.ueD2DTx[10].tcp  "receive window"  ETV
vector 1418  CAIN.ueD2DTx[10].tcp  "sent ack"  ETV
vector 525  CAIN.ueD2DTx[10].nic.pdcpRrc  receivedPacketFromUpperLayer:vector(packetBytes)  ETV
attr interpolationmode  none
attr source  receivedPacketFromUpperLayer
vector 528  CAIN.ueD2DTx[10].nic.pdcpRrc  sentPacketToLowerLayer:vector(packetBytes)  ETV
attr interpolationmode  none
attr source  sentPacketToLowerLayer
vector 529  CAIN.ueD2DTx[10].nic.mac  receivedPacketFromUpperLayer:vector(packetBytes)  ETV
attr interpolationmode  none
attr source  receivedPacketFromUpperLayer
vector 538  CAIN.ueD2DTx[10].nic.mac  CainMessageSent:vector  ETV
attr interpolationmode  none
attr title  "# of Sent CAIN message, vector"
vector 787  CAIN.ueD2DTx[18].nic.mac  sentPacketToUpperLayer:vector(packetBytes)  ETV
attr interpolationmode  none
attr source  sentPacketToUpperLayer
vector 108  CAIN.eNodeB.nic.mac  ServedDevs:vector  ETV
attr interpolationmode  none
attr title  "# of devices served on cain forwarding, vector"
vector 1453  CAIN.ueD2DTx[8].tcp  tcpRcvQueueBytes  ETV
vector 1440  CAIN.ueD2DTx[8].tcp  "advertised window"  ETV
vector 1439  CAIN.ueD2DTx[8].tcp  "receive window"  ETV
vector 1442  CAIN.ueD2DTx[8].tcp  "sent ack"  ETV
vector 461  CAIN.ueD2DTx[8].nic.pdcpRrc  receivedPacketFromUpperLayer:vector(packetBytes)  ETV
attr interpolationmode  none
attr source  receivedPacketFromUpperLayer
vector 464  CAIN.ueD2DTx[8].nic.pdcpRrc  sentPacketToLowerLayer:vector(packetBytes)  ETV
attr interpolationmode  none
attr source  sentPacketToLowerLayer
vector 465  CAIN.ueD2DTx[8].nic.mac  receivedPacketFromUpperLayer:vector(packetBytes)  ETV
attr interpolationmode  none
attr source  receivedPacketFromUpperLayer
vector 1477  CAIN.ueD2DTx[9].tcp  tcpRcvQueueBytes  ETV
vector 1464  CAIN.ueD2DTx[9].tcp  "advertised window"  ETV
vector 1463  CAIN.ueD2DTx[9].tcp  "receive window"  ETV
vector 1466  CAIN.ueD2DTx[9].tcp  "sent ack"  ETV
vector 493  CAIN.ueD2DTx[9].nic.pdcpRrc  receivedPacketFromUpperLayer:vector(packetBytes)  ETV
attr interpolationmode  none
attr source  receivedPacketFromUpperLayer
vector 496  CAIN.ueD2DTx[9].nic.pdcpRrc  sentPacketToLowerLayer:vector(packetBytes)  ETV
attr interpolationmode  none
attr source  sentPacketToLowerLayer
vector 497  CAIN.ueD2DTx[9].nic.mac  receivedPacketFromUpperLayer:vector(packetBytes)  ETV
attr interpolationmode  none
attr source  receivedPacketFromUpperLayer
vector 468  CAIN.ueD2DTx[8].nic.mac  sentPacketToLowerLayer:vector(packetBytes)  ETV
attr interpolationmode  none
attr source  sentPacketToLowerLayer
vector 500  CAIN.ueD2DTx[9].nic.mac  sentPacketToLowerLayer:vector(packetBytes)  ETV
attr interpolationmode  none
attr source  sentPacketToLowerLayer
vector 109  CAIN.eNodeB.nic.mac  ServedHopDevs:vector  ETV
attr interpolationmode  none
attr title  "# of devices served on hop forwarding, vector"
vector 1501  CAIN.ueD2DTx[14].tcp  tcpRcvQueueBytes  ETV
vector 1488  CAIN.ueD2DTx[14].tcp  "advertised window"  ETV
vector 1487  CAIN.ueD2DTx[14].tcp  "receive window"  ETV
vector 1490  CAIN.ueD2DTx[14].tcp  "sent ack"  ETV
vector 653  CAIN.ueD2DTx[14].nic.pdcpRrc  receivedPacketFromUpperLayer:vector(packetBytes)  ETV
attr interpolationmode  none
attr source  receivedPacketFromUpperLayer
vector 656  CAIN.ueD2DTx[14].nic.pdcpRrc  sentPacketToLowerLayer:vector(packetBytes)  ETV
attr interpolationmode  none
attr source  sentPacketToLowerLayer
vector 657  CAIN.ueD2DTx[14].nic.mac  receivedPacketFromUpperLayer:vector(packetBytes)  ETV
attr interpolationmode  none
attr source  receivedPacketFromUpperLayer
vector 667  CAIN.ueD2DTx[14].nic.mac  CainHopMessageSent:vector  ETV
attr interpolationmode  none
attr title  "# of Sent CAIN hop message, vector"
vector 660  CAIN.ueD2DTx[14].nic.mac  sentPacketToLowerLayer:vector(packetBytes)  ETV
attr interpolationmode  none
attr source  sentPacketToLowerLayer
vector 466  CAIN.ueD2DTx[8].nic.mac  receivedPacketFromLowerLayer:vector(packetBytes)  ETV
attr interpolationmode  none
attr source  receivedPacketFromLowerLayer
vector 498  CAIN.ueD2DTx[9].nic.mac  receivedPacketFromLowerLayer:vector(packetBytes)  ETV
attr interpolationmode  none
attr source  receivedPacketFromLowerLayer
vector 467  CAIN.ueD2DTx[8].nic.mac  sentPacketToUpperLayer:vector(packetBytes)  ETV
attr interpolationmode  none
attr source  sentPacketToUpperLayer
vector 499  CAIN.ueD2DTx[9].nic.mac  sentPacketToUpperLayer:vector(packetBytes)  ETV
attr interpolationmode  none
attr source  sentPacketToUpperLayer
vector 1301  CAIN.eNodeB1.sctp  "SendQueue of Association 5"  ETV
vector 1065  CAIN.eNodeB1.sctp  "TSN Sent 5:10.0.5.1"  ETV
vector 1072  CAIN.eNodeB1.sctp  "Outstanding Bytes 5:10.0.5.1"  ETV
vector 870  CAIN.eNodeB1.sctp  "Outstanding Bytes 4:Total"  ETV
vector 1071  CAIN.eNodeB1.sctp  "Queued Sent Bytes 5:10.0.5.1"  ETV
vector 869  CAIN.eNodeB1.sctp  "Queued Sent Bytes 4:Total"  ETV
vector 914  CAIN.eNodeB.sctp  "TSN Received 1:10.0.5.2"  ETV
vector 890  CAIN.eNodeB.sctp  "Queued Received Bytes 1:Total"  ETV
vector 886  CAIN.eNodeB.sctp  "Advertised Receiver Window 1"  ETV
vector 895  CAIN.eNodeB.sctp  "Number of Total Gap Blocks Stored 1"  ETV
vector 896  CAIN.eNodeB.sctp  "Number of Revokable Gap Blocks Stored 1"  ETV
vector 897  CAIN.eNodeB.sctp  "Number of Non-Revokable Gap Blocks Stored 1"  ETV
vector 898  CAIN.eNodeB.sctp  "Number of Duplicate TSNs Stored 1"  ETV
vector 902  CAIN.eNodeB.sctp  "Length of SACK Sent 1"  ETV
vector 899  CAIN.eNodeB.sctp  "Number of Revokable Gap Blocks Sent 1"  ETV
vector 900  CAIN.eNodeB.sctp  "Number of Non-Revokable Gap Blocks Sent 1"  ETV
vector 901  CAIN.eNodeB.sctp  "Number of Duplicate TSNs Sent 1"  ETV
vector 906  CAIN.eNodeB.sctp  "End to End Delay of Association 1"  ETV
vector 141  CAIN.eNodeB.x2App[0].client  rcvdPk:vector(packetBytes)  ETV
attr interpolationmode  none
attr source  rcvdPk
attr title  "packets received, vector(packetBytes)"
vector 1300  CAIN.eNodeB1.sctp  "Number of Gap Blocks in Last SACK of Association 5"  ETV
vector 871  CAIN.eNodeB1.sctp  "Number of Revokable Gap Blocks in SACK 4"  ETV
vector 872  CAIN.eNodeB1.sctp  "Number of Non-Revokable Gap Blocks in SACK 4"  ETV
vector 1082  CAIN.eNodeB1.sctp  "TSN Acked CumAck 5:10.0.5.1"  ETV
vector 1048  CAIN.eNodeB1.sctp  "Number of Gap Acked Chunks in Last SACK 5:10.0.2.2"  ETV
vector 1049  CAIN.eNodeB1.sctp  "Number of Non-Revokable Gap Acked Chunks in Last SACK 5:10.0.2.2"  ETV
vector 1050  CAIN.eNodeB1.sctp  "Number of Gap Missed Chunks in Last SACK 5:10.0.2.2"  ETV
vector 1021  CAIN.eNodeB1.sctp  "Number of Gap Acked Chunks in Last SACK 5:10.0.4.1"  ETV
vector 1022  CAIN.eNodeB1.sctp  "Number of Non-Revokable Gap Acked Chunks in Last SACK 5:10.0.4.1"  ETV
vector 1023  CAIN.eNodeB1.sctp  "Number of Gap Missed Chunks in Last SACK 5:10.0.4.1"  ETV
vector 1075  CAIN.eNodeB1.sctp  "Number of Gap Acked Chunks in Last SACK 5:10.0.5.1"  ETV
vector 1076  CAIN.eNodeB1.sctp  "Number of Non-Revokable Gap Acked Chunks in Last SACK 5:10.0.5.1"  ETV
vector 1077  CAIN.eNodeB1.sctp  "Number of Gap Missed Chunks in Last SACK 5:10.0.5.1"  ETV
vector 881  CAIN.eNodeB1.sctp  "Arwnd in Last SACK 4"  ETV
vector 1084  CAIN.eNodeB1.sctp  "TSN PseudoCumAck 5:10.0.5.1"  ETV
vector 1085  CAIN.eNodeB1.sctp  "TSN RTXPseudoCumAck 5:10.0.5.1"  ETV
vector 1078  CAIN.eNodeB1.sctp  "Partial Bytes Acked 5:10.0.5.1"  ETV
vector 1525  CAIN.ueD2DTx[4].tcp  tcpRcvQueueBytes  ETV
vector 1512  CAIN.ueD2DTx[4].tcp  "advertised window"  ETV
vector 1511  CAIN.ueD2DTx[4].tcp  "receive window"  ETV
vector 1514  CAIN.ueD2DTx[4].tcp  "sent ack"  ETV
vector 333  CAIN.ueD2DTx[4].nic.pdcpRrc  receivedPacketFromUpperLayer:vector(packetBytes)  ETV
attr interpolationmode  none
attr source  receivedPacketFromUpperLayer
vector 336  CAIN.ueD2DTx[4].nic.pdcpRrc  sentPacketToLowerLayer:vector(packetBytes)  ETV
attr interpolationmode  none
attr source  sentPacketToLowerLayer
vector 337  CAIN.ueD2DTx[4].nic.mac  receivedPacketFromUpperLayer:vector(packetBytes)  ETV
attr interpolationmode  none
attr source  receivedPacketFromUpperLayer
vector 347  CAIN.ueD2DTx[4].nic.mac  CainHopMessageSent:vector  ETV
attr interpolationmode  none
attr title  "# of Sent CAIN hop message, vector"
vector 340  CAIN.ueD2DTx[4].nic.mac  sentPacketToLowerLayer:vector(packetBytes)  ETV
attr interpolationmode  none
attr source  sentPacketToLowerLayer
vector 154  CAIN.eNodeB1.nic.mac  receivedPacketFromLowerLayer:vector(packetBytes)  ETV
attr interpolationmode  none
attr source  receivedPacketFromLowerLayer
vector 1549  CAIN.ueD2DTx[6].tcp  tcpRcvQueueBytes  ETV
vector 1536  CAIN.ueD2DTx[6].tcp  "advertised window"  ETV
vector 1535  CAIN.ueD2DTx[6].tcp  "receive window"  ETV
vector 1538  CAIN.ueD2DTx[6].tcp  "sent ack"  ETV
vector 397  CAIN.ueD2DTx[6].nic.pdcpRrc  receivedPacketFromUpperLayer:vector(packetBytes)  ETV
attr interpolationmode  none
attr source  receivedPacketFromUpperLayer
vector 400  CAIN.ueD2DTx[6].nic.pdcpRrc  sentPacketToLowerLayer:vector(packetBytes)  ETV
attr interpolationmode  none
attr source  sentPacketToLowerLayer
vector 401  CAIN.ueD2DTx[6].nic.mac  receivedPacketFromUpperLayer:vector(packetBytes)  ETV
attr interpolationmode  none
attr source  receivedPacketFromUpperLayer
vector 404  CAIN.ueD2DTx[6].nic.mac  sentPacketToLowerLayer:vector(packetBytes)  ETV
attr interpolationmode  none
attr source  sentPacketToLowerLayer
vector 169  CAIN.eNodeB1.nic.mac  racpkt:vector  ETV
attr interpolationmode  none
attr title  "eNB received racpkt message, vector"
vector 170  CAIN.eNodeB1.nic.mac  racDistanceSignal:vector  ETV
attr interpolationmode  none
attr title  "Rac distance to enb, vector"
vector 171  CAIN.eNodeB1.nic.mac  racServedDevsSignal:vector  ETV
attr interpolationmode  none
attr title  "# of devices served on rac arriavall, vector"
vector 156  CAIN.eNodeB1.nic.mac  sentPacketToLowerLayer:vector(packetBytes)  ETV
attr interpolationmode  none
attr source  sentPacketToLowerLayer
vector 402  CAIN.ueD2DTx[6].nic.mac  receivedPacketFromLowerLayer:vector(packetBytes)  ETV
attr interpolationmode  none
attr source  receivedPacketFromLowerLayer
vector 1573  CAIN.ueD2DTx[13].tcp  tcpRcvQueueBytes  ETV
vector 1560  CAIN.ueD2DTx[13].tcp  "advertised window"  ETV
vector 1559  CAIN.ueD2DTx[13].tcp  "receive window"  ETV
vector 1562  CAIN.ueD2DTx[13].tcp  "sent ack"  ETV
vector 621  CAIN.ueD2DTx[13].nic.pdcpRrc  receivedPacketFromUpperLayer:vector(packetBytes)  ETV
attr interpolationmode  none
attr source  receivedPacketFromUpperLayer
vector 624  CAIN.ueD2DTx[13].nic.pdcpRrc  sentPacketToLowerLayer:vector(packetBytes)  ETV
attr interpolationmode  none
attr source  sentPacketToLowerLayer
vector 625  CAIN.ueD2DTx[13].nic.mac  receivedPacketFromUpperLayer:vector(packetBytes)  ETV
attr interpolationmode  none
attr source  receivedPacketFromUpperLayer
vector 634  CAIN.ueD2DTx[13].nic.mac  CainMessageSent:vector  ETV
attr interpolationmode  none
attr title  "# of Sent CAIN message, vector"
vector 628  CAIN.ueD2DTx[13].nic.mac  sentPacketToLowerLayer:vector(packetBytes)  ETV
attr interpolationmode  none
attr source  sentPacketToLowerLayer
vector 1597  CAIN.ueD2DTx[11].tcp  tcpRcvQueueBytes  ETV
vector 1584  CAIN.ueD2DTx[11].tcp  "advertised window"  ETV
vector 1583  CAIN.ueD2DTx[11].tcp  "receive window"  ETV
vector 1586  CAIN.ueD2DTx[11].tcp  "sent ack"  ETV
vector 557  CAIN.ueD2DTx[11].nic.pdcpRrc  receivedPacketFromUpperLayer:vector(packetBytes)  ETV
attr interpolationmode  none
attr source  receivedPacketFromUpperLayer
vector 560  CAIN.ueD2DTx[11].nic.pdcpRrc  sentPacketToLowerLayer:vector(packetBytes)  ETV
attr interpolationmode  none
attr source  sentPacketToLowerLayer
vector 561  CAIN.ueD2DTx[11].nic.mac  receivedPacketFromUpperLayer:vector(packetBytes)  ETV
attr interpolationmode  none
attr source  receivedPacketFromUpperLayer
vector 658  CAIN.ueD2DTx[14].nic.mac  receivedPacketFromLowerLayer:vector(packetBytes)  ETV
attr interpolationmode  none
attr source  receivedPacketFromLowerLayer
vector 1621  CAIN.ueD2DTx[1].tcp  tcpRcvQueueBytes  ETV
vector 1608  CAIN.ueD2DTx[1].tcp  "advertised window"  ETV
vector 1607  CAIN.ueD2DTx[1].tcp  "receive window"  ETV
vector 1610  CAIN.ueD2DTx[1].tcp  "sent ack"  ETV
vector 237  CAIN.ueD2DTx[1].nic.pdcpRrc  receivedPacketFromUpperLayer:vector(packetBytes)  ETV
attr interpolationmode  none
attr source  receivedPacketFromUpperLayer
vector 240  CAIN.ueD2DTx[1].nic.pdcpRrc  sentPacketToLowerLayer:vector(packetBytes)  ETV
attr interpolationmode  none
attr source  sentPacketToLowerLayer
vector 241  CAIN.ueD2DTx[1].nic.mac  receivedPacketFromUpperLayer:vector(packetBytes)  ETV
attr interpolationmode  none
attr source  receivedPacketFromUpperLayer
vector 251  CAIN.ueD2DTx[1].nic.mac  CainHopMessageSent:vector  ETV
attr interpolationmode  none
attr title  "# of Sent CAIN hop message, vector"
vector 244  CAIN.ueD2DTx[1].nic.mac  sentPacketToLowerLayer:vector(packetBytes)  ETV
attr interpolationmode  none
attr source  sentPacketToLowerLayer
vector 1645  CAIN.ueD2DTx[15].tcp  tcpRcvQueueBytes  ETV
vector 1632  CAIN.ueD2DTx[15].tcp  "advertised window"  ETV
vector 1631  CAIN.ueD2DTx[15].tcp  "receive window"  ETV
vector 1634  CAIN.ueD2DTx[15].tcp  "sent ack"  ETV
vector 685  CAIN.ueD2DTx[15].nic.pdcpRrc  receivedPacketFromUpperLayer:vector(packetBytes)  ETV
attr interpolationmode  none
attr source  receivedPacketFromUpperLayer
vector 688  CAIN.ueD2DTx[15].nic.pdcpRrc  sentPacketToLowerLayer:vector(packetBytes)  ETV
attr interpolationmode  none
attr source  sentPacketToLowerLayer
vector 689  CAIN.ueD2DTx[15].nic.mac  receivedPacketFromUpperLayer:vector(packetBytes)  ETV
attr interpolationmode  none
attr source  receivedPacketFromUpperLayer
vector 692  CAIN.ueD2DTx[15].nic.mac  sentPacketToLowerLayer:vector(packetBytes)  ETV
attr interpolationmode  none
attr source  sentPacketToLowerLayer
vector 562  CAIN.ueD2DTx[11].nic.mac  receivedPacketFromLowerLayer:vector(packetBytes)  ETV
attr interpolationmode  none
attr source  receivedPacketFromLowerLayer
vector 564  CAIN.ueD2DTx[11].nic.mac  sentPacketToLowerLayer:vector(packetBytes)  ETV
attr interpolationmode  none
attr source  sentPacketToLowerLayer
vector 690  CAIN.ueD2DTx[15].nic.mac  receivedPacketFromLowerLayer:vector(packetBytes)  ETV
attr interpolationmode  none
attr source  receivedPacketFromLowerLayer
vector 691  CAIN.ueD2DTx[15].nic.mac  sentPacketToUpperLayer:vector(packetBytes)  ETV
attr interpolationmode  none
attr source  sentPacketToUpperLayer
vector 1669  CAIN.ueD2DTx[5].tcp  tcpRcvQueueBytes  ETV
vector 1656  CAIN.ueD2DTx[5].tcp  "advertised window"  ETV
vector 1655  CAIN.ueD2DTx[5].tcp  "receive window"  ETV
vector 1658  CAIN.ueD2DTx[5].tcp  "sent ack"  ETV
vector 365  CAIN.ueD2DTx[5].nic.pdcpRrc  receivedPacketFromUpperLayer:vector(packetBytes)  ETV
attr interpolationmode  none
attr source  receivedPacketFromUpperLayer
vector 368  CAIN.ueD2DTx[5].nic.pdcpRrc  sentPacketToLowerLayer:vector(packetBytes)  ETV
attr interpolationmode  none
attr source  sentPacketToLowerLayer
vector 369  CAIN.ueD2DTx[5].nic.mac  receivedPacketFromUpperLayer:vector(packetBytes)  ETV
attr interpolationmode  none
attr source  receivedPacketFromUpperLayer
vector 1693  CAIN.ueD2DTx[12].tcp  tcpRcvQueueBytes  ETV
vector 1680  CAIN.ueD2DTx[12].tcp  "advertised window"  ETV
vector 1679  CAIN.ueD2DTx[12].tcp  "receive window"  ETV
vector 1682  CAIN.ueD2DTx[12].tcp  "sent ack"  ETV
vector 589  CAIN.ueD2DTx[12].nic.pdcpRrc  receivedPacketFromUpperLayer:vector(packetBytes)  ETV
attr interpolationmode  none
attr source  receivedPacketFromUpperLayer
vector 592  CAIN.ueD2DTx[12].nic.pdcpRrc  sentPacketToLowerLayer:vector(packetBytes)  ETV
attr interpolationmode  none
attr source  sentPacketToLowerLayer
vector 593  CAIN.ueD2DTx[12].nic.mac  receivedPacketFromUpperLayer:vector(packetBytes)  ETV
attr interpolationmode  none
attr source  receivedPacketFromUpperLayer
vector 1717  CAIN.ueD2DTx[0].tcp  tcpRcvQueueBytes  ETV
vector 1704  CAIN.ueD2DTx[0].tcp  "advertised window"  ETV
vector 1703  CAIN.ueD2DTx[0].tcp  "receive window"  ETV
vector 1706  CAIN.ueD2DTx[0].tcp  "sent ack"  ETV
vector 205  CAIN.ueD2DTx[0].nic.pdcpRrc  receivedPacketFromUpperLayer:vector(packetBytes)  ETV
attr interpolationmode  none
attr source  receivedPacketFromUpperLayer
vector 208  CAIN.ueD2DTx[0].nic.pdcpRrc  sentPacketToLowerLayer:vector(packetBytes)  ETV
attr interpolationmode  none
attr source  sentPacketToLowerLayer
vector 209  CAIN.ueD2DTx[0].nic.mac  receivedPacketFromUpperLayer:vector(packetBytes)  ETV
attr interpolationmode  none
attr source  receivedPacketFromUpperLayer
vector 219  CAIN.ueD2DTx[0].nic.mac  CainHopMessageSent:vector  ETV
attr interpolationmode  none
attr title  "# of Sent CAIN hop message, vector"
vector 212  CAIN.ueD2DTx[0].nic.mac  sentPacketToLowerLayer:vector(packetBytes)  ETV
attr interpolationmode  none
attr source  sentPacketToLowerLayer
vector 1741  CAIN.ueD2DTx[17].tcp  tcpRcvQueueBytes  ETV
vector 1728  CAIN.ueD2DTx[17].tcp  "advertised window"  ETV
vector 1727  CAIN.ueD2DTx[17].tcp  "receive window"  ETV
vector 1730  CAIN.ueD2DTx[17].tcp  "sent ack"  ETV
vector 749  CAIN.ueD2DTx[17].nic.pdcpRrc  receivedPacketFromUpperLayer:vector(packetBytes)  ETV
attr interpolationmode  none
attr source  receivedPacketFromUpperLayer
vector 752  CAIN.ueD2DTx[17].nic.pdcpRrc  sentPacketToLowerLayer:vector(packetBytes)  ETV
attr interpolationmode  none
attr source  sentPacketToLowerLayer
vector 753  CAIN.ueD2DTx[17].nic.mac  receivedPacketFromUpperLayer:vector(packetBytes)  ETV
attr interpolationmode  none
attr source  receivedPacketFromUpperLayer
vector 756  CAIN.ueD2DTx[17].nic.mac  sentPacketToLowerLayer:vector(packetBytes)  ETV
attr interpolationmode  none
attr source  sentPacketToLowerLayer
vector 754  CAIN.ueD2DTx[17].nic.mac  receivedPacketFromLowerLayer:vector(packetBytes)  ETV
attr interpolationmode  none
attr source  receivedPacketFromLowerLayer
vector 1765  CAIN.ueD2DTx[2].tcp  tcpRcvQueueBytes  ETV
vector 1752  CAIN.ueD2DTx[2].tcp  "advertised window"  ETV
vector 1751  CAIN.ueD2DTx[2].tcp  "receive window"  ETV
vector 1754  CAIN.ueD2DTx[2].tcp  "sent ack"  ETV
vector 269  CAIN.ueD2DTx[2].nic.pdcpRrc  receivedPacketFromUpperLayer:vector(packetBytes)  ETV
attr interpolationmode  none
attr source  receivedPacketFromUpperLayer
vector 272  CAIN.ueD2DTx[2].nic.pdcpRrc  sentPacketToLowerLayer:vector(packetBytes)  ETV
attr interpolationmode  none
attr source  sentPacketToLowerLayer
vector 273  CAIN.ueD2DTx[2].nic.mac  receivedPacketFromUpperLayer:vector(packetBytes)  ETV
attr interpolationmode  none
attr source  receivedPacketFromUpperLayer
vector 276  CAIN.ueD2DTx[2].nic.mac  sentPacketToLowerLayer:vector(packetBytes)  ETV
attr interpolationmode  none
attr source  sentPacketToLowerLayer
vector 274  CAIN.ueD2DTx[2].nic.mac  receivedPacketFromLowerLayer:vector(packetBytes)  ETV
attr interpolationmode  none
attr source  receivedPacketFromLowerLayer
vector 1789  CAIN.ueD2DTx[19].tcp  tcpRcvQueueBytes  ETV
vector 1776  CAIN.ueD2DTx[19].tcp  "advertised window"  ETV
vector 1775  CAIN.ueD2DTx[19].tcp  "receive window"  ETV
vector 1778  CAIN.ueD2DTx[19].tcp  "sent ack"  ETV
vector 813  CAIN.ueD2DTx[19].nic.pdcpRrc  receivedPacketFromUpperLayer:vector(packetBytes)  ETV
attr interpolationmode  none
attr source  receivedPacketFromUpperLayer
vector 816  CAIN.ueD2DTx[19].nic.pdcpRrc  sentPacketToLowerLayer:vector(packetBytes)  ETV
attr interpolationmode  none
attr source  sentPacketToLowerLayer
vector 817  CAIN.ueD2DTx[19].nic.mac  receivedPacketFromUpperLayer:vector(packetBytes)  ETV
attr interpolationmode  none
attr source  receivedPacketFromUpperLayer
vector 275  CAIN.ueD2DTx[2].nic.mac  sentPacketToUpperLayer:vector(packetBytes)  ETV
attr interpolationmode  none
attr source  sentPacketToUpperLayer
vector 820  CAIN.ueD2DTx[19].nic.mac  sentPacketToLowerLayer:vector(packetBytes)  ETV
attr interpolationmode  none
attr source  sentPacketToLowerLayer
vector 818  CAIN.ueD2DTx[19].nic.mac  receivedPacketFromLowerLayer:vector(packetBytes)  ETV
attr interpolationmode  none
attr source  receivedPacketFromLowerLayer
vector 115  CAIN.eNodeB.nic.phy  averageCqiUlvect:vector  ETV
attr source  averageCqiUlvect
attr title  "Average Cqi reported in UL, vector"
attr unit  cqi
vector 826  CAIN.ueD2DTx[19].nic.mac  CainMessageSent:vector  ETV
attr interpolationmode  none
attr title  "# of Sent CAIN message, vector"
vector 314  CAIN.ueD2DTx[3].nic.mac  CainMessageSent:vector  ETV
attr interpolationmode  none
attr title  "# of Sent CAIN message, vector"
vector 659  CAIN.ueD2DTx[14].nic.mac  sentPacketToUpperLayer:vector(packetBytes)  ETV
attr interpolationmode  none
attr source  sentPacketToUpperLayer
vector 626  CAIN.ueD2DTx[13].nic.mac  receivedPacketFromLowerLayer:vector(packetBytes)  ETV
attr interpolationmode  none
attr source  receivedPacketFromLowerLayer
vector 403  CAIN.ueD2DTx[6].nic.mac  sentPacketToUpperLayer:vector(packetBytes)  ETV
attr interpolationmode  none
attr source  sentPacketToUpperLayer
vector 570  CAIN.ueD2DTx[11].nic.mac  CainMessageSent:vector  ETV
attr interpolationmode  none
attr title  "# of Sent CAIN message, vector"
vector 379  CAIN.ueD2DTx[5].nic.mac  CainHopMessageSent:vector  ETV
attr interpolationmode  none
attr title  "# of Sent CAIN hop message, vector"
vector 372  CAIN.ueD2DTx[5].nic.mac  sentPacketToLowerLayer:vector(packetBytes)  ETV
attr interpolationmode  none
attr source  sentPacketToLowerLayer
vector 602  CAIN.ueD2DTx[12].nic.mac  CainMessageSent:vector  ETV
attr interpolationmode  none
attr title  "# of Sent CAIN message, vector"
vector 596  CAIN.ueD2DTx[12].nic.mac  sentPacketToLowerLayer:vector(packetBytes)  ETV
attr interpolationmode  none
attr source  sentPacketToLowerLayer
vector 755  CAIN.ueD2DTx[17].nic.mac  sentPacketToUpperLayer:vector(packetBytes)  ETV
attr interpolationmode  none
attr source  sentPacketToUpperLayer
vector 563  CAIN.ueD2DTx[11].nic.mac  sentPacketToUpperLayer:vector(packetBytes)  ETV
attr interpolationmode  none
attr source  sentPacketToUpperLayer
vector 242  CAIN.ueD2DTx[1].nic.mac  receivedPacketFromLowerLayer:vector(packetBytes)  ETV
attr interpolationmode  none
attr source  receivedPacketFromLowerLayer
vector 666  CAIN.ueD2DTx[14].nic.mac  CainMessageSent:vector  ETV
attr interpolationmode  none
attr title  "# of Sent CAIN message, vector"
vector 594  CAIN.ueD2DTx[12].nic.mac  receivedPacketFromLowerLayer:vector(packetBytes)  ETV
attr interpolationmode  none
attr source  receivedPacketFromLowerLayer
vector 243  CAIN.ueD2DTx[1].nic.mac  sentPacketToUpperLayer:vector(packetBytes)  ETV
attr interpolationmode  none
attr source  sentPacketToUpperLayer
vector 763  CAIN.ueD2DTx[17].nic.mac  CainHopMessageSent:vector  ETV
attr interpolationmode  none
attr title  "# of Sent CAIN hop message, vector"
1108	50290 24 150 150 0.0000001228 0.0000001228 1 0 0 0 0
1219	50314 28 235 235 0.0000006304 0.0000006304 1 65535 65535 65535 4294836225
1220	50342 27 235 235 0.0000006304 0.0000006304 1 8940 8940 8940 79923600
1221	50369 29 235 235 0.0000006304 0.0000006304 1 0.3725 0.3725 0.3725 0.13875625
1217	50398 24 235 235 0.0000006304 0.0000006304 1 3 3 3 9
1224	50422 24 235 235 0.0000006304 0.0000006304 1 1 1 1 1
1236	50446 24 163 163 0.0000003096 0.0000003096 1 0 0 0 0
1192	50470 28 235 235 0.0000006304 0.0000006304 1 65535 65535 65535 4294836225
1193	50498 27 235 235 0.0000006304 0.0000006304 1 8940 8940 8940 79923600
1194	50525 29 235 235 0.0000006304 0.0000006304 1 0.3725 0.3725 0.3725 0.13875625
1190	50554 24 235 235 0.0000006304 0.0000006304 1 3 3 3 9
1197	50578 24 235 235 0.0000006304 0.0000006304 1 1 1 1 1
1209	50602 24 163 163 0.0000003096 0.0000003096 1 0 0 0 0
910	50626 27 235 235 0.0000006304 0.0000006304 1 65535 65535 65535 4294836225
911	50653 26 235 235 0.0000006304 0.0000006304 1 8940 8940 8940 79923600
912	50679 28 235 235 0.0000006304 0.0000006304 1 0.3725 0.3725 0.3725 0.13875625
908	50707 46 235 302 0.0000006304 0.0000008564 2 1 3 4 10
909	50753 30 302 302 0.0000008564 0.0000008564 1 2.26e-07 2.26e-07 2.26e-07 5.1076e-14
914	50783 3012 3332 14980 0.0570000972 0.2570021596 108 2000 2107 221778 455526090
917	53795 44 207 221 0.000000552 0.000000596 2 1 2 3 5
916	53839 44 207 221 0.000000552 0.000000596 2 1 2 3 5
918	53883 46 302 308 0.0000008564 0.0000009004 2 1 2 3 5
927	53929 12 131 131 0 0 1 0 0 0 0
886	53941 86 3332 26029 0.0570000972 0.4570021596 3 65533 65535 196603 12884246539
890	54027 2765 3332 26029 0.0570000972 0.4570021596 111 0 192 218 37356
895	56792 74 3332 26029 0.0570000972 0.4570021596 3 0 0 0 0
896	56866 74 3332 26029 0.0570000972 0.4570021596 3 0 0 0 0
897	56940 74 3332 26029 0.0570000972 0.4570021596 3 0 0 0 0
898	57014 74 3332 26029 0.0570000972 0.4570021596 3 0 0 0 0
899	57088 74 3332 26029 0.0570000972 0.4570021596 3 0 0 0 0
900	57162 74 3332 26029 0.0570000972 0.4570021596 3 0 0 0 0
901	57236 74 3332 26029 0.0570000972 0.4570021596 3 0 0 0 0
902	57310 77 3332 26029 0.0570000972 0.4570021596 3 16 16 48 768
904	57387 27 163 163 0.0000003096 0.0000003096 1 65535 65535 65535 4294836225
906	57414 3647 3335 15077 0.0570000972 0.2570021596 108 9.72e-08 1.6172e-06 0.0001581776 2.5180935872e-10
907	61061 12 131 131 0 0 1 0 0 0 0
1138	61073 27 178 178 0.000000458 0.000000458 1 65535 65535 65535 4294836225
1139	61100 26 178 178 0.000000458 0.000000458 1 8940 8940 8940 79923600
1140	61126 28 178 178 0.000000458 0.000000458 1 0.3725 0.3725 0.3725 0.13875625
1136	61154 23 178 178 0.000000458 0.000000458 1 3 3 3 9
1143	61177 23 178 178 0.000000458 0.000000458 1 1 1 1 1
1151	61200 76 651 23390 0.0070001912 0.4070022536 3 0 0 0 0
1152	61276 76 651 23390 0.0070001912 0.4070022536 3 0 0 0 0
1153	61352 76 651 23390 0.0070001912 0.4070022536 3 0 0 0 0
1155	61428 24 150 150 0.0000001228 0.0000001228 1 0 0 0 0
1111	61452 27 178 178 0.000000458 0.000000458 1 65535 65535 65535 4294836225
1112	61479 26 178 178 0.000000458 0.000000458 1 8940 8940 8940 79923600
1113	61505 28 178 178 0.000000458 0.000000458 1 0.3725 0.3725 0.3725 0.13875625
1109	61533 23 178 178 0.000000458 0.000000458 1 3 3 3 9
1116	61556 23 178 178 0.000000458 0.000000458 1 1 1 1 1
1124	61579 76 651 23390 0.0070001912 0.4070022536 3 0 0 0 0
1125	61655 76 651 23390 0.0070001912 0.4070022536 3 0 0 0 0
1126	61731 76 651 23390 0.0070001912 0.4070022536 3 0 0 0 0
1128	61807 24 150 150 0.0000001228 0.0000001228 1 0 0 0 0
1165	61831 57 178 65054 0.000000458 1.2070005424 2 65535 65535 131070 8589672450
1166	61888 55 178 65054 0.000000458 1.2070005424 2 8940 8940 17880 159847200
1167	61943 58 178 65054 0.000000458 1.2070005424 2 0.3725 23.84 24.2125 568.48435625
1163	62001 123 178 23390 0.000000458 0.4070022536 5 1 3 7 13
1164	62124 138 255 23390 0.0000006744 0.4070022536 4 1.912e-07 0.2000017112 0.40000247 0.080000824963135
1168	62262 3101 597 11879 0.007 0.2070005424 108 2000 2107 221778 455526090
1172	65363 48 273 287 0.0000007624 0.0000008064 2 1 2 3 5
1171	65411 48 273 287 0.0000007624 0.0000008064 2 1 2 3 5
1173	65459 48 255 265 0.0000006744 0.0000007184 2 1 2 3 5
1174	65507 5872 597 23390 0.007 0.4070022536 216 0 192 18676 2362992
1175	71379 5872 597 23390 0.007 0.4070022536 216 0 192 18676 2362992
1178	77251 76 651 23390 0.0070001912 0.4070022536 3 0 0 0 0
1179	77327 76 651 23390 0.0070001912 0.4070022536 3 0 0 0 0
1180	77403 76 651 23390 0.0070001912 0.4070022536 3 0 0 0 0
1181	77479 76 651 23390 0.0070001912 0.4070022536 3 0 0 0 0
1182	77555 24 150 150 0.0000001228 0.0000001228 1 0 0 0 0
1185	77579 85 651 23390 0.0070001912 0.4070022536 3 2000 2107 6118 12483570
1187	77664 76 651 23390 0.0070001912 0.4070022536 3 0 0 0 0
1188	77740 76 651 23390 0.0070001912 0.4070022536 3 0 0 0 0
1304	77816 76 651 23390 0.0070001912 0.4070022536 3 0 0 0 0
1305	77892 4873 597 11879 0.007 0.2070005424 216 0 96 9338 590748
848	82765 5656 597 23390 0.007 0.4070022536 216 0 192 18676 2362992
847	88421 5656 597 23390 0.007 0.4070022536 216 0 192 18676 2362992
849	94077 73 651 23390 0.0070001912 0.4070022536 3 0 0 0 0
850	94150 73 651 23390 0.0070001912 0.4070022536 3 0 0 0 0
859	94223 85 651 23390 0.0070001912 0.4070022536 3 65533 65535 196603 12884246539
860	94308 112 150 23390 0.0000001228 0.4070022536 4 65533 65535 262138 17179082764
863	94420 12 123 123 0 0 1 0 0 0 0
1005	94432 24 149 149 0.0000001228 0.0000001228 1 0 0 0 0
1273	94456 28 236 236 0.0000006304 0.0000006304 1 65535 65535 65535 4294836225
1274	94484 27 236 236 0.0000006304 0.0000006304 1 8940 8940 8940 79923600
1275	94511 29 236 236 0.0000006304 0.0000006304 1 0.3725 0.3725 0.3725 0.13875625
1271	94540 24 236 236 0.0000006304 0.0000006304 1 3 3 3 9
1278	94564 24 236 236 0.0000006304 0.0000006304 1 1 1 1 1
1290	94588 24 164 164 0.0000003096 0.0000003096 1 0 0 0 0
1246	94612 28 236 236 0.0000006304 0.0000006304 1 65535 65535 65535 4294836225
1247	94640 27 236 236 0.0000006304 0.0000006304 1 8940 8940 8940 79923600
1248	94667 29 236 236 0.0000006304 0.0000006304 1 0.3725 0.3725 0.3725 0.13875625
1244	94696 24 236 236 0.0000006304 0.0000006304 1 3 3 3 9
1251	94720 24 236 236 0.0000006304 0.0000006304 1 1 1 1 1
1263	94744 24 164 164 0.0000003096 0.0000003096 1 0 0 0 0
959	94768 27 236 236 0.0000006304 0.0000006304 1 65535 65535 65535 4294836225
960	94795 26 236 236 0.0000006304 0.0000006304 1 8940 8940 8940 79923600
961	94821 28 236 236 0.0000006304 0.0000006304 1 0.3725 0.3725 0.3725 0.13875625
957	94849 46 236 301 0.0000006304 0.0000008564 2 1 3 4 10
958	94895 30 301 301 0.0000008564 0.0000008564 1 2.26e-07 2.26e-07 2.26e-07 5.1076e-14
963	94925 3000 639 11886 0.0070000972 0.2070021596 108 2000 2107 221778 455526090
966	97925 44 208 222 0.000000552 0.000000596 2 1 2 3 5
965	97969 44 208 222 0.000000552 0.000000596 2 1 2 3 5
967	98013 46 301 307 0.0000008564 0.0000009004 2 1 2 3 5
976	98059 12 132 132 0 0 1 0 0 0 0
935	98071 85 639 23383 0.0070000972 0.4070021596 3 65533 65535 196603 12884246539
939	98156 2752 639 23383 0.0070000972 0.4070021596 111 0 192 218 37356
944	100908 73 639 23383 0.0070000972 0.4070021596 3 0 0 0 0
945	100981 73 639 23383 0.0070000972 0.4070021596 3 0 0 0 0
946	101054 73 639 23383 0.0070000972 0.4070021596 3 0 0 0 0
947	101127 73 639 23383 0.0070000972 0.4070021596 3 0 0 0 0
948	101200 73 639 23383 0.0070000972 0.4070021596 3 0 0 0 0
949	101273 73 639 23383 0.0070000972 0.4070021596 3 0 0 0 0
950	101346 73 639 23383 0.0070000972 0.4070021596 3 0 0 0 0
951	101419 76 639 23383 0.0070000972 0.4070021596 3 16 16 48 768
953	101495 27 164 164 0.0000003096 0.0000003096 1 65535 65535 65535 4294836225
955	101522 3635 642 11983 0.0070000972 0.2070021596 108 9.72e-08 1.6172e-06 0.0001581776 2.5180935872e-10
956	105157 12 132 132 0 0 1 0 0 0 0
1035	105169 27 177 177 0.000000458 0.000000458 1 65535 65535 65535 4294836225
1036	105196 26 177 177 0.000000458 0.000000458 1 8940 8940 8940 79923600
1037	105222 28 177 177 0.000000458 0.000000458 1 0.3725 0.3725 0.3725 0.13875625
1033	105250 23 177 177 0.000000458 0.000000458 1 3 3 3 9
1040	105273 23 177 177 0.000000458 0.000000458 1 1 1 1 1
1048	105296 77 3344 26036 0.0570001912 0.4570022536 3 0 0 0 0
1049	105373 77 3344 26036 0.0570001912 0.4570022536 3 0 0 0 0
1050	105450 77 3344 26036 0.0570001912 0.4570022536 3 0 0 0 0
1052	105527 24 149 149 0.0000001228 0.0000001228 1 0 0 0 0
1008	105551 27 177 177 0.000000458 0.000000458 1 65535 65535 65535 4294836225
1009	105578 26 177 177 0.000000458 0.000000458 1 8940 8940 8940 79923600
1010	105604 28 177 177 0.000000458 0.000000458 1 0.3725 0.3725 0.3725 0.13875625
1006	105632 23 177 177 0.000000458 0.000000458 1 3 3 3 9
1013	105655 23 177 177 0.000000458 0.000000458 1 1 1 1 1
1021	105678 77 3344 26036 0.0570001912 0.4570022536 3 0 0 0 0
1022	105755 77 3344 26036 0.0570001912 0.4570022536 3 0 0 0 0
1023	105832 77 3344 26036 0.0570001912 0.4570022536 3 0 0 0 0
1025	105909 24 149 149 0.0000001228 0.0000001228 1 0 0 0 0
1062	105933 57 177 67568 0.000000458 1.2570005424 2 65535 65535 131070 8589672450
1063	105990 55 177 67568 0.000000458 1.2570005424 2 8940 8940 17880 159847200
1064	106045 58 177 67568 0.000000458 1.2570005424 2 0.3725 23.84 24.2125 568.48435625
1060	106103 124 177 26036 0.000000458 0.4570022536 5 1 3 7 13
1061	106227 139 256 26036 0.0000006744 0.4570022536 4 1.912e-07 0.2000017112 0.40000247 0.080000824963135
1065	106366 3113 3266 14973 0.057 0.2570005424 108 2000 2107 221778 455526090
1069	109479 48 274 288 0.0000007624 0.0000008064 2 1 2 3 5
1068	109527 48 274 288 0.0000007624 0.0000008064 2 1 2 3 5
1070	109575 48 256 266 0.0000006744 0.0000007184 2 1 2 3 5
1071	109623 5885 3266 26036 0.057 0.4570022536 216 0 192 18676 2362992
1072	115508 5885 3266 26036 0.057 0.4570022536 216 0 192 18676 2362992
1075	121393 77 3344 26036 0.0570001912 0.4570022536 3 0 0 0 0
1076	121470 77 3344 26036 0.0570001912 0.4570022536 3 0 0 0 0
1077	121547 77 3344 26036 0.0570001912 0.4570022536 3 0 0 0 0
1078	121624 77 3344 26036 0.0570001912 0.4570022536 3 0 0 0 0
1079	121701 24 149 149 0.0000001228 0.0000001228 1 0 0 0 0
1082	121725 86 3344 26036 0.0570001912 0.4570022536 3 2000 2107 6118 12483570
1084	121811 77 3344 26036 0.0570001912 0.4570022536 3 0 0 0 0
1085	121888 77 3344 26036 0.0570001912 0.4570022536 3 0 0 0 0
1300	121965 77 3344 26036 0.0570001912 0.4570022536 3 0 0 0 0
1301	122042 4909 3266 14973 0.057 0.2570005424 216 0 96 9338 590748
870	126951 5669 3266 26036 0.057 0.4570022536 216 0 192 18676 2362992
869	132620 5669 3266 26036 0.057 0.4570022536 216 0 192 18676 2362992
871	138289 74 3344 26036 0.0570001912 0.4570022536 3 0 0 0 0
872	138363 74 3344 26036 0.0570001912 0.4570022536 3 0 0 0 0
881	138437 86 3344 26036 0.0570001912 0.4570022536 3 65533 65535 196603 12884246539
882	138523 113 149 26036 0.0000001228 0.4570022536 4 65533 65535 262138 17179082764
885	138636 12 128 128 0 0 1 0 0 0 0
8	138648 8 0 0 0 0 1 0 0 0 0
9	138656 8 0 0 0 0 1 0 0 0 0
24	138664 9 0 0 0 0 1 0 0 0 0
25	138673 9 0 0 0 0 1 0 0 0 0
35	138682 9 0 0 0 0 1 0 0 0 0
36	138691 9 0 0 0 0 1 0 0 0 0
56	138700 9 0 0 0 0 1 0 0 0 0
57	138709 9 0 0 0 0 1 0 0 0 0
67	138718 9 0 0 0 0 1 0 0 0 0
68	138727 9 0 0 0 0 1 0 0 0 0
78	138736 9 0 0 0 0 1 0 0 0 0
79	138745 9 0 0 0 0 1 0 0 0 0
96	138754 645123 378 626087 0.002 10 36479 0 0 0 0
98	783877 327220 1043 626087 0.015 10 18515 0 0 0 0
100	1111097 85659 1043 626087 0.015 10 4055 1 4055 8223540 22233710980
101	1196756 103140 1748 626027 0.031 9.999 4757 1 4757 11316903 35893444015
106	1299896 366108 1043 626087 0.015 10 17614 323 710 10724896 6856462828
108	1666004 76380 2290 625880 0.042 9.997 4048 2 8 27692 198616
109	1742384 94068 2398 626032 0.043 9.999 4754 2 12 49159 514577
111	1836452 485845 1043 626087 0.015 10 21811 1 21811 237870766 3458878808406
112	2322297 450912 1043 626087 0.015 10 21811 46 295 5362248 1468395420
113	2773209 409707 1043 626087 0.015 10 21811 0 0 0 0
115	3182916 25388 6351 626073 0.105 10 1320 2 15 19543 291139
120	3208304 10 0 0 0 0 1 0 0 0 0
121	3208314 10 0 0 0 0 1 0 0 0 0
128	3208324 421 139 26031 0 0.4570021596 18 36 1952 3184 3950560
130	3208745 438 139 26031 0 0.4570021596 18 0 8.8e-08 3.088e-07 1.946112e-14
131	3209183 280 0 258 0 0.0000007124 13 0 2 10 14
132	3209463 828 0 26033 0 0.4570022036 37 0 1 18 18
133	3210291 423 141 26032 0 0.4570021596 18 43 1959 3310 3996018
134	3210714 442 146 23388 0.0000001228 0.4070022536 18 43 1959 3310 3996018
137	3211156 423 141 26032 0 0.4570021596 18 36 1952 3184 3950560
138	3211579 442 146 23388 0.0000001228 0.4070022536 18 36 1952 3184 3950560
141	3212021 2688 3337 15268 0.0570000972 0.2570021596 108 2 2 216 432
154	3214709 389639 3640 626014 0.062 9.999 20971 0 0 0 0
156	3604348 40162 3846 626035 0.065 10 2145 0 0 0 0
169	3644510 22361 3846 626014 0.065 9.999 1087 1 1087 591328 428712800
170	3666871 22381 3846 626014 0.065 9.999 1087 222 628 378356 142401474
171	3689252 20207 3846 626014 0.065 9.999 1087 0 0 0 0
178	3709459 10 0 0 0 0 1 0 0 0 0
179	3709469 10 0 0 0 0 1 0 0 0 0
186	3709479 422 140 23385 0 0.4070021596 18 36 1952 3184 3950560
188	3709901 439 140 23385 0 0.4070021596 18 0 8.8e-08 3.088e-07 1.946112e-14
189	3710340 280 0 257 0 0.0000007124 13 0 2 10 14
190	3710620 830 0 23387 0 0.4070022036 37 0 1 18 18
191	3711450 424 142 23386 0 0.4070021596 18 43 1959 3310 3996018
192	3711874 441 145 26034 0.0000001228 0.4570022536 18 43 1959 3310 3996018
195	3712315 424 142 23386 0 0.4070021596 18 36 1952 3184 3950560
196	3712739 441 145 26034 0.0000001228 0.4570022536 18 36 1952 3184 3950560
199	3713180 2676 644 12174 0.0070000972 0.2070021596 108 2 2 216 432
205	3715856 85 5256 563758 0.088660440601 9.088660440601 3 44 44 132 5808
208	3715941 85 5256 563758 0.088660440601 9.088660440601 3 45 45 135 6075
209	3716026 85 5259 563761 0.088660440601 9.088660440601 3 45 45 135 6075
212	3716111 26294 5262 625977 0.089 9.999 1384 0 0 0 0
219	3742405 29339 5262 625977 0.089 9.999 1384 1 1384 958420 884621660
231	3771744 163 0 6271 0 0.105 10 1 2 19 37
237	3771907 85 4176 562476 0.070868452201 9.070868452201 3 44 44 132 5808
240	3771992 85 4176 562476 0.070868452201 9.070868452201 3 45 45 135 6075
241	3772077 620 4179 565681 0.070868452201 9.115 32 0 45 324 7398
242	3772697 1102 371284 565623 6.108 9.114 58 0 0 0 0
243	3773799 535 371375 565677 6.11 9.115 29 0 0 0 0
244	3774334 23095 4183 565415 0.071 9.111 1236 0 0 0 0
251	3797429 25058 4183 370753 0.071 6.101 1207 1 1207 729028 586867540
263	3822487 10 0 0 0 0 1 1 1 1 1
269	3822497 85 5669 564260 0.095104090585 9.095104090585 3 44 44 132 5808
272	3822582 85 5669 564260 0.095104090585 9.095104090585 3 45 45 135 6075
273	3822667 487 5672 564986 0.095104090585 9.105 26 0 45 310 8218
274	3823154 25661 5870 625260 0.098 9.988 1366 0 0 0 0
275	3848815 400 5988 564982 0.1 9.105 23 0 0 0 0
276	3849215 25246 5698 625260 0.096 9.988 1343 0 0 0 0
295	3874461 10 0 0 0 0 1 1 1 1 1
301	3874471 85 1557 559493 0.027262016546 9.027262016546 3 44 44 132 5808
304	3874556 85 1557 559493 0.027262016546 9.027262016546 3 45 45 135 6075
305	3874641 85 1560 559496 0.027262016546 9.027262016546 3 45 45 135 6075
308	3874726 26607 1566 625887 0.028 9.998 1401 0 0 0 0
314	3901333 12828 156014 370902 3.028 6.103 616 1 616 190036 78104796
315	3914161 16365 1566 625887 0.028 9.998 785 1 785 308505 161553785
327	3930526 163 0 6272 0 0.105 10 1 2 19 37
333	3930689 85 3445 561614 0.058969033093 9.058969033093 3 44 44 132 5808
336	3930774 85 3445 561614 0.058969033093 9.058969033093 3 45 45 135 6075
337	3930859 85 3448 561617 0.058969033093 9.058969033093 3 45 45 135 6075
340	3930944 26408 3455 625982 0.059 9.999 1390 0 0 0 0
347	3957352 29471 3455 625982 0.059 9.999 1390 1 1390 966745 896172615
359	3986823 163 0 6273 0 0.105 10 1 2 19 37
365	3986986 85 4778 563230 0.080385986073 9.080385986073 3 44 44 132 5808
368	3987071 85 4778 563230 0.080385986073 9.080385986073 3 45 45 135 6075
369	3987156 85 4781 563233 0.080385986073 9.080385986073 3 45 45 135 6075
372	3987241 26296 159394 625762 3.081 9.996 1384 0 0 0 0
379	4013537 29341 159394 625762 3.081 9.996 1384 1 1384 958420 884621660
391	4042878 163 0 6274 0 0.105 10 1 2 19 37
397	4043041 85 3777 561978 0.063074826114 9.063074826114 3 44 44 132 5808
400	4043126 85 3777 561978 0.063074826114 9.063074826114 3 45 45 135 6075
401	4043211 125 3780 562266 0.063074826114 9.068 5 45 47 229 10493
402	4043336 61883 3903 626076 0.066 10 3303 0 0 0 0
403	4105219 38 158467 562262 3.068 9.068 2 0 0 0 0
404	4105257 61845 3789 626076 0.064 10 3301 0 0 0 0
423	4167102 163 0 6275 0 0.105 10 1 2 19 37
429	4167265 85 1806 559831 0.032193433337 9.032193433337 3 44 44 132 5808
432	4167350 85 1806 559831 0.032193433337 9.032193433337 3 45 45 135 6075
433	4167435 37400 1809 625841 0.032193433337 9.997 1988 0 45 215 6995
434	4204835 126043 1908 626079 0.035 10 6735 0 0 0 0
435	4330878 37312 2032 625837 0.037 9.997 1985 0 0 0 0
436	4368190 89847 1820 625970 0.033 9.998 4750 0 0 0 0
455	4458037 10 0 0 0 0 1 1 1 1 1
461	4458047 85 2297 560472 0.042654495104 9.042654495104 3 44 44 132 5808
464	4458132 85 2297 560472 0.042654495104 9.042654495104 3 45 45 135 6075
465	4458217 314 2300 561846 0.042654495104 9.062 15 8 45 294 8292
466	4458531 434 2516 561804 0.045 9.061 24 0 0 0 0
467	4458965 220 2585 561842 0.047 9.062 12 0 0 0 0
468	4459185 220 2377 561577 0.043 9.058 12 0 0 0 0
487	4459405 10 0 0 0 0 1 1 1 1 1
493	4459415 85 2305 560479 0.042742808261 9.042742808261 3 44 44 132 5808
496	4459500 85 2305 560479 0.042742808261 9.042742808261 3 45 45 135 6075
497	4459585 5137 2308 625847 0.042742808261 9.997 269 0 45 186 7220
498	4464722 32353 2518 626081 0.045 10 1747 0 0 0 0
499	4497075 5050 2590 625843 0.047 9.997 266 0 0 0 0
500	4502125 27434 2379 626068 0.043 10 1480 0 0 0 0
519	4529559 163 0 6276 0 0.105 10 1 2 19 37
525	4529722 85 2060 560136 0.037255783586 9.037255783586 3 44 44 132 5808
528	4529807 85 2060 560136 0.037255783586 9.037255783586 3 45 45 135 6075
529	4529892 85 2063 560139 0.037255783586 9.037255783586 3 45 45 135 6075
530	4529977 40886 1612 626065 0.029 10 2176 0 0 0 0
532	4570863 67421 1612 626065 0.029 10 3573 0 0 0 0
538	4638284 29619 2078 625897 0.038 9.998 1397 1 1397 976503 909775295
551	4667903 163 0 6277 0 0.105 10 1 2 19 37
557	4668066 85 4050 562353 0.068596436554 9.068596436554 3 44 44 132 5808
560	4668151 85 4050 562353 0.068596436554 9.068596436554 3 45 45 135 6075
561	4668236 3467 4053 562356 0.068596436554 9.068596436554 181 0 45 142 6124
562	4671703 32799 4273 626062 0.072 10 1766 0 0 0 0
563	4704502 3382 364269 423835 6.008 6.903 178 0 0 0 0
564	4707884 52350 4273 626062 0.072 10 2795 0 0 0 0
570	4760234 25447 158569 625990 3.069 9.999 1207 1 1207 729028 586867540
583	4785681 163 0 6278 0 0.105 10 1 2 19 37
589	4785844 85 5132 563649 0.086132885579 9.086132885579 3 44 44 132 5808
592	4785929 85 5132 563649 0.086132885579 9.086132885579 3 45 45 135 6075
593	4786014 85 5135 563652 0.086132885579 9.086132885579 3 45 45 135 6075
594	4786099 18259 371351 626008 6.109 9.999 961 0 0 0 0
596	4804358 44536 159822 626008 3.087 9.999 2344 0 0 0 0
602	4848894 29319 159822 625850 3.087 9.997 1383 1 1383 957036 882706204
615	4878213 163 0 6279 0 0.105 10 1 2 19 37
621	4878376 85 3965 562248 0.067512416122 9.067512416122 3 44 44 132 5808
624	4878461 85 3965 562248 0.067512416122 9.067512416122 3 45 45 135 6075
625	4878546 85 3968 562251 0.067512416122 9.067512416122 3 45 45 135 6075
626	4878631 12892 157961 423628 3.06 6.9 700 0 0 0 0
628	4891523 39262 3985 625901 0.068 9.998 2088 0 0 0 0
634	4930785 29427 3985 625901 0.068 9.998 1388 1 1388 963966 892311194
647	4960212 163 0 6280 0 0.105 10 1 2 19 37
653	4960375 85 2403 560554 0.043019576671 9.043019576671 3 44 44 132 5808
656	4960460 85 2403 560554 0.043019576671 9.043019576671 3 45 45 135 6075
657	4960545 11258 2406 560557 0.043019576671 9.043019576671 591 0 45 151 6331
658	4971803 57853 4135 371157 0.069 6.106 3045 0 0 0 0
659	5029656 11172 157174 363959 3.048 6.003 588 0 0 0 0
660	5040828 61533 2423 625994 0.044 9.999 3239 0 0 0 0
666	5102361 16251 371330 625994 6.109 9.999 779 1 779 303810 157879930
667	5118612 51 2423 3025 0.044 0.054 3 1 3 6 14
679	5118663 163 0 6281 0 0.105 10 1 2 19 37
685	5118826 85 4217 562533 0.071731106779 9.071731106779 3 44 44 132 5808
688	5118911 85 4217 562533 0.071731106779 9.071731106779 3 45 45 135 6075
689	5118996 143 4220 562882 0.071731106779 9.076 6 45 47 276 12702
690	5119139 44526 4331 562827 0.073 9.075 2420 0 0 0 0
691	5163665 55 4524 562878 0.076 9.076 3 0 0 0 0
692	5163720 44471 4263 562584 0.072 9.072 2417 0 0 0 0
711	5208191 10 0 0 0 0 1 1 1 1 1
717	5208201 84 882 558502 0.012314120021 9.012314120021 3 44 44 132 5808
720	5208285 84 882 558502 0.012314120021 9.012314120021 3 45 45 135 6075
721	5208369 84 885 558505 0.012314120021 9.012314120021 3 45 45 135 6075
724	5208453 37550 960 625905 0.013 9.998 1998 0 0 0 0
730	5246003 42437 960 625905 0.013 9.998 1998 1 1998 1997001 2660670999
743	5288440 10 0 0 0 0 1 1 1 1 1
749	5288450 85 5303 563823 0.089070481334 9.089070481334 3 44 44 132 5808
752	5288535 85 5303 563823 0.089070481334 9.089070481334 3 45 45 135 6075
753	5288620 562 5306 563826 0.089070481334 9.089070481334 28 0 45 184 7336
754	5289182 12272 5508 363649 0.092 5.999 646 0 0 0 0
755	5301454 475 160313 169468 3.094 3.214 25 0 0 0 0
756	5301929 15155 5347 626054 0.09 10 804 0 0 0 0
763	5317084 3632 563872 626054 9.09 10 183 1 183 16836 2059604
775	5320716 163 0 6282 0 0.105 10 1 2 19 37
781	5320879 85 1874 559934 0.034967919982 9.034967919982 3 44 44 132 5808
784	5320964 85 1874 559934 0.034967919982 9.034967919982 3 45 45 135 6075
785	5321049 15278 1877 560586 0.034967919982 9.044 814 0 45 296 9328
786	5336327 240264 1016 626090 0.014 10 12756 0 0 0 0
787	5576591 15188 2138 560582 0.039 9.044 811 0 0 0 0
788	5591779 224502 1016 626090 0.014 10 11938 0 0 0 0
792	5816281 85 1070 1965 0.016 0.036 5 1 5 15 55
793	5816366 34 1801 2055 0.032 0.037 2 1 2 3 5
807	5816400 10 0 0 0 0 1 1 1 1 1
813	5816410 85 5963 564583 0.099035166858 9.099035166858 3 44 44 132 5808
816	5816495 85 5963 564583 0.099035166858 9.099035166858 3 45 45 135 6075
817	5816580 85 5966 564586 0.099035166858 9.099035166858 3 45 45 135 6075
818	5816665 94835 6122 626006 0.102 9.999 5049 0 0 0 0
820	5911500 81346 6010 626057 0.1 10 4391 0 0 0 0
826	5992846 13258 6591 625035 0.11 9.985 660 1 660 218130 96049910
839	6006104 10 0 0 0 0 1 1 1 1 1
1319	6006114 93 879 558499 0.012314120021 9.012314120021 3 7504 7504 22512 168930048
1320	6006207 93 879 558499 0.012314120021 9.012314120021 3 7504 7504 22512 168930048
1322	6006300 84 879 558499 0.012314120021 9.012314120021 3 0 0 0 0
1333	6006384 84 879 558499 0.012314120021 9.012314120021 3 0 0 0 0
1343	6006468 94 1554 559490 0.027262016546 9.027262016546 3 7504 7504 22512 168930048
1344	6006562 94 1554 559490 0.027262016546 9.027262016546 3 7504 7504 22512 168930048
1346	6006656 85 1554 559490 0.027262016546 9.027262016546 3 0 0 0 0
1357	6006741 85 1554 559490 0.027262016546 9.027262016546 3 0 0 0 0
1367	6006826 94 1803 559828 0.032193433337 9.032193433337 3 7504 7504 22512 168930048
1368	6006920 94 1803 559828 0.032193433337 9.032193433337 3 7504 7504 22512 168930048
1370	6007014 85 1803 559828 0.032193433337 9.032193433337 3 0 0 0 0
1381	6007099 85 1803 559828 0.032193433337 9.032193433337 3 0 0 0 0
1391	6007184 94 1871 559931 0.034967919982 9.034967919982 3 7504 7504 22512 168930048
1392	6007278 94 1871 559931 0.034967919982 9.034967919982 3 7504 7504 22512 168930048
1394	6007372 85 1871 559931 0.034967919982 9.034967919982 3 0 0 0 0
1405	6007457 85 1871 559931 0.034967919982 9.034967919982 3 0 0 0 0
1415	6007542 94 2057 560133 0.037255783586 9.037255783586 3 7504 7504 22512 168930048
1416	6007636 94 2057 560133 0.037255783586 9.037255783586 3 7504 7504 22512 168930048
1418	6007730 85 2057 560133 0.037255783586 9.037255783586 3 0 0 0 0
1429	6007815 85 2057 560133 0.037255783586 9.037255783586 3 0 0 0 0
1439	6007900 94 2294 560469 0.042654495104 9.042654495104 3 7504 7504 22512 168930048
1440	6007994 94 2294 560469 0.042654495104 9.042654495104 3 7504 7504 22512 168930048
1442	6008088 85 2294 560469 0.042654495104 9.042654495104 3 0 0 0 0
1453	6008173 85 2294 560469 0.042654495104 9.042654495104 3 0 0 0 0
1463	6008258 94 2302 560476 0.042742808261 9.042742808261 3 7504 7504 22512 168930048
1464	6008352 94 2302 560476 0.042742808261 9.042742808261 3 7504 7504 22512 168930048
1466	6008446 85 2302 560476 0.042742808261 9.042742808261 3 0 0 0 0
1477	6008531 85 2302 560476 0.042742808261 9.042742808261 3 0 0 0 0
1487	6008616 94 2400 560551 0.043019576671 9.043019576671 3 7504 7504 22512 168930048
1488	6008710 94 2400 560551 0.043019576671 9.043019576671 3 7504 7504 22512 168930048
1490	6008804 85 2400 560551 0.043019576671 9.043019576671 3 0 0 0 0
1501	6008889 85 2400 560551 0.043019576671 9.043019576671 3 0 0 0 0
1511	6008974 94 3442 561611 0.058969033093 9.058969033093 3 7504 7504 22512 168930048
1512	6009068 94 3442 561611 0.058969033093 9.058969033093 3 7504 7504 22512 168930048
1514	6009162 85 3442 561611 0.058969033093 9.058969033093 3 0 0 0 0
1525	6009247 85 3442 561611 0.058969033093 9.058969033093 3 0 0 0 0
1535	6009332 94 3774 561975 0.063074826114 9.063074826114 3 7504 7504 22512 168930048
1536	6009426 94 3774 561975 0.063074826114 9.063074826114 3 7504 7504 22512 168930048
1538	6009520 85 3774 561975 0.063074826114 9.063074826114 3 0 0 0 0
1549	6009605 85 3774 561975 0.063074826114 9.063074826114 3 0 0 0 0
1559	6009690 94 3962 562245 0.067512416122 9.067512416122 3 7504 7504 22512 168930048
1560	6009784 94 3962 562245 0.067512416122 9.067512416122 3 7504 7504 22512 168930048
1562	6009878 85 3962 562245 0.067512416122 9.067512416122 3 0 0 0 0
1573	6009963 85 3962 562245 0.067512416122 9.067512416122 3 0 0 0 0
1583	6010048 94 4047 562350 0.068596436554 9.068596436554 3 7504 7504 22512 168930048
1584	6010142 94 4047 562350 0.068596436554 9.068596436554 3 7504 7504 22512 168930048
1586	6010236 85 4047 562350 0.068596436554 9.068596436554 3 0 0 0 0
1597	6010321 85 4047 562350 0.068596436554 9.068596436554 3 0 0 0 0
1607	6010406 94 4173 562473 0.070868452201 9.070868452201 3 7504 7504 22512 168930048
1608	6010500 94 4173 562473 0.070868452201 9.070868452201 3 7504 7504 22512 168930048
1610	6010594 85 4173 562473 0.070868452201 9.070868452201 3 0 0 0 0
1621	6010679 85 4173 562473 0.070868452201 9.070868452201 3 0 0 0 0
1631	6010764 94 4214 562530 0.071731106779 9.071731106779 3 7504 7504 22512 168930048
1632	6010858 94 4214 562530 0.071731106779 9.071731106779 3 7504 7504 22512 168930048
1634	6010952 85 4214 562530 0.071731106779 9.071731106779 3 0 0 0 0
1645	6011037 85 4214 562530 0.071731106779 9.071731106779 3 0 0 0 0
1655	6011122 94 4775 563227 0.080385986073 9.080385986073 3 7504 7504 22512 168930048
1656	6011216 94 4775 563227 0.080385986073 9.080385986073 3 7504 7504 22512 168930048
1658	6011310 85 4775 563227 0.080385986073 9.080385986073 3 0 0 0 0
1669	6011395 85 4775 563227 0.080385986073 9.080385986073 3 0 0 0 0
1679	6011480 94 5129 563646 0.086132885579 9.086132885579 3 7504 7504 22512 168930048
1680	6011574 94 5129 563646 0.086132885579 9.086132885579 3 7504 7504 22512 168930048
1682	6011668 85 5129 563646 0.086132885579 9.086132885579 3 0 0 0 0
1693	6011753 85 5129 563646 0.086132885579 9.086132885579 3 0 0 0 0
1703	6011838 94 5253 563755 0.088660440601 9.088660440601 3 7504 7504 22512 168930048
1704	6011932 94 5253 563755 0.088660440601 9.088660440601 3 7504 7504 22512 168930048
1706	6012026 85 5253 563755 0.088660440601 9.088660440601 3 0 0 0 0
1717	6012111 85 5253 563755 0.088660440601 9.088660440601 3 0 0 0 0
1727	6012196 94 5300 563820 0.089070481334 9.089070481334 3 7504 7504 22512 168930048
1728	6012290 94 5300 563820 0.089070481334 9.089070481334 3 7504 7504 22512 168930048
1730	6012384 85 5300 563820 0.089070481334 9.089070481334 3 0 0 0 0
1741	6012469 85 5300 563820 0.089070481334 9.089070481334 3 0 0 0 0
1751	6012554 94 5666 564257 0.095104090585 9.095104090585 3 7504 7504 22512 168930048
1752	6012648 94 5666 564257 0.095104090585 9.095104090585 3 7504 7504 22512 168930048
1754	6012742 85 5666 564257 0.095104090585 9.095104090585 3 0 0 0 0
1765	6012827 85 5666 564257 0.095104090585 9.095104090585 3 0 0 0 0
1775	6012912 94 5960 564580 0.099035166858 9.099035166858 3 7504 7504 22512 168930048
1776	6013006 94 5960 564580 0.099035166858 9.099035166858 3 7504 7504 22512 168930048
1778	6013100 85 5960 564580 0.099035166858 9.099035166858 3 0 0 0 0
1789	6013185 85 5960 564580 0.099035166858 9.099035166858 3 0 0 0 0
