file 341585 1580843059                                          
version 2
run CAIN-3-20200204-16:03:53-19755
attr configname CAIN
attr datetime 20200204-16:03:53
attr dist 200
attr experiment CAIN
attr inifile omnetpp.ini
attr iterationvars "$dist=200, $numUe=10, $mob=\"./movements/RPGM-0.5.movements\""
attr iterationvars2 "$dist=200, $numUe=10, $mob=\"./movements/RPGM-0.5.movements\", $repetition=0"
attr measurement "$dist=200, $numUe=10, $mob=\"./movements/RPGM-0.5.movements\""
attr mob "\"./movements/RPGM-0.5.movements\""
attr network lte.simulations.networks.CAIN
attr numUe 10
attr processid 19755
attr repetition 0
attr replication #0
attr resultdir results
attr runnumber 3
attr seedset 0
param **.**.amcMode "\"AUTO\""
param **.amcMode "\"D2D\""
param **.cainNetwork true
param **.channelControl.alpha 1.0
param **.channelControl.carrierFrequency 2100e+6Hz
param **.channelControl.pMax 10W
param **.d2dCqi 7
param **.deployer.numRbDl 50
param **.deployer.numRbUl 50
param **.distThresh "${dist=200..260 step 10}"
param **.fbDelay 1
param **.feedbackComputation "xmldoc(\"config_channel.xml\")"
param **.mobility.constraintAreaMaxX 1000m
param **.mobility.constraintAreaMaxY 1000m
param **.mobility.constraintAreaMaxZ 0m
param **.mobility.constraintAreaMinX 0m
param **.mobility.constraintAreaMinY 0m
param **.mobility.constraintAreaMinZ 0m
param **.nic.phy.channelModel "xmldoc(\"config_channel.xml\")"
param **.numBands 50
param **.pwrThresh -10
param **.qtdThresh 3
param **.rbAllocationType "\"localized\""
param **.routingRecorder.enabled false
param **.tcpApp[*].tClose -1s
param **.ueD2DTx[*].mobility.changeAngleBy "normal(0deg, 30deg)"
param **.ueD2DTx[*].mobility.changeInterval "normal(5s, 0.1s)"
param **.ueD2DTx[*].mobility.nodeId -1
param **.ueD2DTx[*].mobility.speed "normal(2mps, 0.01mps)"
param **.ueD2DTx[*].mobility.traceFile "${mob=\"./movements/RWP-0.0.movements\",\"./movements/RWP-0.5.movements\",\"./movements/RPGM-0.0.movements\",\"./movements/RPGM-0.5.movements\",\"./movements/RWPRPGM-0.0.movements\",\"./movements/RWPRPGM-0.5.movements\"}"
param **.ueD2DTx[*].mobilityType "\"BonnMotionMobility\""
param **.usePreconfiguredTxParams false
param *.eNodeB.d2dCapable false
param *.eNodeB.mobility.initFromDisplayString false
param *.eNodeB.mobility.initialX 300m
param *.eNodeB.mobility.initialY 300m
param *.eNodeB.nic.phy.enableD2DCqiReporting true
param *.eNodeB.txPower 19952.62315mw
param *.numUeCell 0
param *.numUeD2DRx 1
param *.numUeD2DTx 1
param *.ue*.macCellId 1
param *.ue*.masterId 1
param *.ue*.mobility.initFromDisplayString false
param *.ue*[0].macCellId 1
param *.ue*[0].masterId 1
param *.ue*[0].mobility.initFromDisplayString false
param *.ueD2D*.numTcpApps 1
param *.ueD2D*[*].d2dCapable true
param *.ueD2D*[0].d2dCapable false
param *.ueD2D*[0].numTcpApps 1
param *.ueD2DRx[0].mobility.initialX 310m
param *.ueD2DRx[0].mobility.initialY 350m
param *.ueD2DRx[0].tcpApp[*].localPort 1000
param *.ueD2DRx[0].tcpApp[*].typename "\"TCPSinkApp\""
param *.ueD2DTx*.tcpApp[*].connectAddress "\"ueD2DTx[0]\""
param *.ueD2DTx*.tcpApp[*].localAddress "\"ueD2DTx\""
param *.ueD2DTx*.tcpApp[*].localPort 1000
param *.ueD2DTx*.tcpApp[*].sendBytes 1GiB
param *.ueD2DTx*.tcpApp[*].typename "\"TCPSessionApp\""
param *.ueD2DTx*.tcpApp[0].active true
param *.ueD2DTx*.tcpApp[0].connectPort 1000
param *.ueD2DTx*.tcpApp[0].tOpen uniform(0.010s,0.1s)
param *.ueD2DTx*.tcpApp[0].tSend uniform(0.15s,0.5s)
param *.ueD2DTx[0].mobility.initialX 290m
param *.ueD2DTx[0].mobility.initialY 350m
param *.ueD2DTx[0].nic.d2dPeerAddresses "\"ueD2DTx[1]\""
param *.ueD2DTx[0].tcpApp[*].localPort 1000
param *.ueD2DTx[0].tcpApp[*].sendBytes 1GiB
param *.ueD2DTx[0].tcpApp[*].typename "\"TCPSessionApp\""
param *.ueD2DTx[0].tcpApp[0].active true
param *.ueD2DTx[0].tcpApp[0].connectAddress "\"ueD2DRx[0]\""
param *.ueD2DTx[0].tcpApp[0].connectPort 1000
param *.ueD2DTx[0].tcpApp[0].localAddress "\"ueD2DTx[0]\""
param *.ueD2DTx[0].tcpApp[0].tOpen uniform(0.010s,0.1s)
param *.ueD2DTx[0].tcpApp[0].tSend uniform(0.15s,0.5s)
param *.ueD2DTx[1].nic.d2dPeerAddresses "\"ueD2DTx[0]\""

vector 8  CAIN.server.ppp[0].queue  queueLength:vector  ETV
attr interpolationmode  sample-hold
attr title  "queue length, vector"
vector 9  CAIN.server.ppp[0].ppp  txState:vector  ETV
attr interpolationmode  sample-hold
attr title  "tx state, vector"
vector 24  CAIN.router.ppp[0].queue  queueLength:vector  ETV
attr interpolationmode  sample-hold
attr title  "queue length, vector"
vector 25  CAIN.router.ppp[0].ppp  txState:vector  ETV
attr interpolationmode  sample-hold
attr title  "tx state, vector"
vector 35  CAIN.router.ppp[1].queue  queueLength:vector  ETV
attr interpolationmode  sample-hold
attr title  "queue length, vector"
vector 36  CAIN.router.ppp[1].ppp  txState:vector  ETV
attr interpolationmode  sample-hold
attr title  "tx state, vector"
vector 56  CAIN.pgw.ppp[0].queue  queueLength:vector  ETV
attr interpolationmode  sample-hold
attr title  "queue length, vector"
vector 57  CAIN.pgw.ppp[0].ppp  txState:vector  ETV
attr interpolationmode  sample-hold
attr title  "tx state, vector"
vector 67  CAIN.pgw.pppInterface.queue  queueLength:vector  ETV
attr interpolationmode  sample-hold
attr title  "queue length, vector"
vector 68  CAIN.pgw.pppInterface.ppp  txState:vector  ETV
attr interpolationmode  sample-hold
attr title  "tx state, vector"
vector 104  CAIN.eNodeB.pppIf.queue  queueLength:vector  ETV
attr interpolationmode  sample-hold
attr title  "queue length, vector"
vector 105  CAIN.eNodeB.pppIf.ppp  txState:vector  ETV
attr interpolationmode  sample-hold
attr title  "tx state, vector"
vector 138  CAIN.ueD2DTx[0].nic.phy  servingCell:vector  ETV
attr source  servingCell
attr title  "ID of the serving eNodeB for the UE, vector"
attr unit  ""
vector 165  CAIN.ueD2DTx[1].nic.phy  servingCell:vector  ETV
attr source  servingCell
attr title  "ID of the serving eNodeB for the UE, vector"
attr unit  ""
vector 192  CAIN.ueD2DTx[2].nic.phy  servingCell:vector  ETV
attr source  servingCell
attr title  "ID of the serving eNodeB for the UE, vector"
attr unit  ""
vector 219  CAIN.ueD2DTx[3].nic.phy  servingCell:vector  ETV
attr source  servingCell
attr title  "ID of the serving eNodeB for the UE, vector"
attr unit  ""
vector 246  CAIN.ueD2DTx[4].nic.phy  servingCell:vector  ETV
attr source  servingCell
attr title  "ID of the serving eNodeB for the UE, vector"
attr unit  ""
vector 273  CAIN.ueD2DTx[5].nic.phy  servingCell:vector  ETV
attr source  servingCell
attr title  "ID of the serving eNodeB for the UE, vector"
attr unit  ""
vector 300  CAIN.ueD2DTx[6].nic.phy  servingCell:vector  ETV
attr source  servingCell
attr title  "ID of the serving eNodeB for the UE, vector"
attr unit  ""
vector 327  CAIN.ueD2DTx[7].nic.phy  servingCell:vector  ETV
attr source  servingCell
attr title  "ID of the serving eNodeB for the UE, vector"
attr unit  ""
vector 354  CAIN.ueD2DTx[8].nic.phy  servingCell:vector  ETV
attr source  servingCell
attr title  "ID of the serving eNodeB for the UE, vector"
attr unit  ""
vector 381  CAIN.ueD2DTx[9].nic.phy  servingCell:vector  ETV
attr source  servingCell
attr title  "ID of the serving eNodeB for the UE, vector"
attr unit  ""
vector 85  CAIN.eNodeB.nic.mac  receivedPacketFromLowerLayer:vector(packetBytes)  ETV
attr interpolationmode  none
attr source  receivedPacketFromLowerLayer
vector 399  CAIN.ueD2DTx[4].tcp  tcpRcvQueueBytes  ETV
vector 386  CAIN.ueD2DTx[4].tcp  "advertised window"  ETV
vector 385  CAIN.ueD2DTx[4].tcp  "receive window"  ETV
vector 388  CAIN.ueD2DTx[4].tcp  "sent ack"  ETV
vector 225  CAIN.ueD2DTx[4].nic.pdcpRrc  receivedPacketFromUpperLayer:vector(packetBytes)  ETV
attr interpolationmode  none
attr source  receivedPacketFromUpperLayer
vector 228  CAIN.ueD2DTx[4].nic.pdcpRrc  sentPacketToLowerLayer:vector(packetBytes)  ETV
attr interpolationmode  none
attr source  sentPacketToLowerLayer
vector 229  CAIN.ueD2DTx[4].nic.mac  receivedPacketFromUpperLayer:vector(packetBytes)  ETV
attr interpolationmode  none
attr source  receivedPacketFromUpperLayer
vector 232  CAIN.ueD2DTx[4].nic.mac  sentPacketToLowerLayer:vector(packetBytes)  ETV
attr interpolationmode  none
attr source  sentPacketToLowerLayer
vector 96  CAIN.eNodeB.nic.mac  racpkt:vector  ETV
attr interpolationmode  none
attr title  "eNB received racpkt message, vector"
vector 97  CAIN.eNodeB.nic.mac  racDistanceSignal:vector  ETV
attr interpolationmode  none
attr title  "Rac distance to enb, vector"
vector 87  CAIN.eNodeB.nic.mac  sentPacketToLowerLayer:vector(packetBytes)  ETV
attr interpolationmode  none
attr source  sentPacketToLowerLayer
vector 230  CAIN.ueD2DTx[4].nic.mac  receivedPacketFromLowerLayer:vector(packetBytes)  ETV
attr interpolationmode  none
attr source  receivedPacketFromLowerLayer
vector 241  CAIN.ueD2DTx[4].nic.mac  racpkt:vector  ETV
attr interpolationmode  none
attr title  "eNB received racpkt message, vector"
vector 242  CAIN.ueD2DTx[4].nic.mac  racDistanceSignal:vector  ETV
attr interpolationmode  none
attr title  "Rac distance to enb, vector"
vector 231  CAIN.ueD2DTx[4].nic.mac  sentPacketToUpperLayer:vector(packetBytes)  ETV
attr interpolationmode  none
attr source  sentPacketToUpperLayer
vector 99  CAIN.eNodeB.nic.phy  averageCqiUlvect:vector  ETV
attr source  averageCqiUlvect
attr title  "Average Cqi reported in UL, vector"
attr unit  cqi
vector 86  CAIN.eNodeB.nic.mac  sentPacketToUpperLayer:vector(packetBytes)  ETV
attr interpolationmode  none
attr source  sentPacketToUpperLayer
vector 88  CAIN.eNodeB.nic.mac  measuredItbs:vector  ETV
attr source  measuredItbs
attr title  "TBS index, vector"
attr unit  ""
vector 423  CAIN.ueD2DTx[7].tcp  tcpRcvQueueBytes  ETV
vector 410  CAIN.ueD2DTx[7].tcp  "advertised window"  ETV
vector 409  CAIN.ueD2DTx[7].tcp  "receive window"  ETV
vector 412  CAIN.ueD2DTx[7].tcp  "sent ack"  ETV
vector 306  CAIN.ueD2DTx[7].nic.pdcpRrc  receivedPacketFromUpperLayer:vector(packetBytes)  ETV
attr interpolationmode  none
attr source  receivedPacketFromUpperLayer
vector 309  CAIN.ueD2DTx[7].nic.pdcpRrc  sentPacketToLowerLayer:vector(packetBytes)  ETV
attr interpolationmode  none
attr source  sentPacketToLowerLayer
vector 310  CAIN.ueD2DTx[7].nic.mac  receivedPacketFromUpperLayer:vector(packetBytes)  ETV
attr interpolationmode  none
attr source  receivedPacketFromUpperLayer
vector 313  CAIN.ueD2DTx[7].nic.mac  sentPacketToLowerLayer:vector(packetBytes)  ETV
attr interpolationmode  none
attr source  sentPacketToLowerLayer
vector 311  CAIN.ueD2DTx[7].nic.mac  receivedPacketFromLowerLayer:vector(packetBytes)  ETV
attr interpolationmode  none
attr source  receivedPacketFromLowerLayer
vector 322  CAIN.ueD2DTx[7].nic.mac  racpkt:vector  ETV
attr interpolationmode  none
attr title  "eNB received racpkt message, vector"
vector 323  CAIN.ueD2DTx[7].nic.mac  racDistanceSignal:vector  ETV
attr interpolationmode  none
attr title  "Rac distance to enb, vector"
vector 312  CAIN.ueD2DTx[7].nic.mac  sentPacketToUpperLayer:vector(packetBytes)  ETV
attr interpolationmode  none
attr source  sentPacketToUpperLayer
vector 447  CAIN.ueD2DTx[5].tcp  tcpRcvQueueBytes  ETV
vector 434  CAIN.ueD2DTx[5].tcp  "advertised window"  ETV
vector 433  CAIN.ueD2DTx[5].tcp  "receive window"  ETV
vector 436  CAIN.ueD2DTx[5].tcp  "sent ack"  ETV
vector 252  CAIN.ueD2DTx[5].nic.pdcpRrc  receivedPacketFromUpperLayer:vector(packetBytes)  ETV
attr interpolationmode  none
attr source  receivedPacketFromUpperLayer
vector 255  CAIN.ueD2DTx[5].nic.pdcpRrc  sentPacketToLowerLayer:vector(packetBytes)  ETV
attr interpolationmode  none
attr source  sentPacketToLowerLayer
vector 256  CAIN.ueD2DTx[5].nic.mac  receivedPacketFromUpperLayer:vector(packetBytes)  ETV
attr interpolationmode  none
attr source  receivedPacketFromUpperLayer
vector 81  CAIN.eNodeB.nic.pdcpRrc  receivedPacketFromLowerLayer:vector(packetBytes)  ETV
attr interpolationmode  none
attr source  receivedPacketFromLowerLayer
vector 82  CAIN.eNodeB.nic.pdcpRrc  sentPacketToUpperLayer:vector(packetBytes)  ETV
attr interpolationmode  none
attr source  sentPacketToUpperLayer
vector 80  CAIN.eNodeB.nic.pdcpRrc  receivedPacketFromUpperLayer:vector(packetBytes)  ETV
attr interpolationmode  none
attr source  receivedPacketFromUpperLayer
vector 83  CAIN.eNodeB.nic.pdcpRrc  sentPacketToLowerLayer:vector(packetBytes)  ETV
attr interpolationmode  none
attr source  sentPacketToLowerLayer
vector 84  CAIN.eNodeB.nic.mac  receivedPacketFromUpperLayer:vector(packetBytes)  ETV
attr interpolationmode  none
attr source  receivedPacketFromUpperLayer
vector 259  CAIN.ueD2DTx[5].nic.mac  sentPacketToLowerLayer:vector(packetBytes)  ETV
attr interpolationmode  none
attr source  sentPacketToLowerLayer
vector 135  CAIN.ueD2DTx[0].nic.phy  averageCqiDlvect:vector  ETV
attr source  averageCqiDlvect
attr title  "Average Cqi reported in DL, vector"
attr unit  cqi
vector 122  CAIN.ueD2DTx[0].nic.mac  receivedPacketFromLowerLayer:vector(packetBytes)  ETV
attr interpolationmode  none
attr source  receivedPacketFromLowerLayer
vector 257  CAIN.ueD2DTx[5].nic.mac  receivedPacketFromLowerLayer:vector(packetBytes)  ETV
attr interpolationmode  none
attr source  receivedPacketFromLowerLayer
vector 268  CAIN.ueD2DTx[5].nic.mac  racpkt:vector  ETV
attr interpolationmode  none
attr title  "eNB received racpkt message, vector"
vector 269  CAIN.ueD2DTx[5].nic.mac  racDistanceSignal:vector  ETV
attr interpolationmode  none
attr title  "Rac distance to enb, vector"
vector 471  CAIN.ueD2DTx[8].tcp  tcpRcvQueueBytes  ETV
vector 458  CAIN.ueD2DTx[8].tcp  "advertised window"  ETV
vector 457  CAIN.ueD2DTx[8].tcp  "receive window"  ETV
vector 460  CAIN.ueD2DTx[8].tcp  "sent ack"  ETV
vector 333  CAIN.ueD2DTx[8].nic.pdcpRrc  receivedPacketFromUpperLayer:vector(packetBytes)  ETV
attr interpolationmode  none
attr source  receivedPacketFromUpperLayer
vector 336  CAIN.ueD2DTx[8].nic.pdcpRrc  sentPacketToLowerLayer:vector(packetBytes)  ETV
attr interpolationmode  none
attr source  sentPacketToLowerLayer
vector 337  CAIN.ueD2DTx[8].nic.mac  receivedPacketFromUpperLayer:vector(packetBytes)  ETV
attr interpolationmode  none
attr source  receivedPacketFromUpperLayer
vector 258  CAIN.ueD2DTx[5].nic.mac  sentPacketToUpperLayer:vector(packetBytes)  ETV
attr interpolationmode  none
attr source  sentPacketToUpperLayer
vector 340  CAIN.ueD2DTx[8].nic.mac  sentPacketToLowerLayer:vector(packetBytes)  ETV
attr interpolationmode  none
attr source  sentPacketToLowerLayer
vector 124  CAIN.ueD2DTx[0].nic.mac  sentPacketToLowerLayer:vector(packetBytes)  ETV
attr interpolationmode  none
attr source  sentPacketToLowerLayer
vector 123  CAIN.ueD2DTx[0].nic.mac  sentPacketToUpperLayer:vector(packetBytes)  ETV
attr interpolationmode  none
attr source  sentPacketToUpperLayer
vector 118  CAIN.ueD2DTx[0].nic.pdcpRrc  receivedPacketFromLowerLayer:vector(packetBytes)  ETV
attr interpolationmode  none
attr source  receivedPacketFromLowerLayer
vector 119  CAIN.ueD2DTx[0].nic.pdcpRrc  sentPacketToUpperLayer:vector(packetBytes)  ETV
attr interpolationmode  none
attr source  sentPacketToUpperLayer
vector 338  CAIN.ueD2DTx[8].nic.mac  receivedPacketFromLowerLayer:vector(packetBytes)  ETV
attr interpolationmode  none
attr source  receivedPacketFromLowerLayer
vector 349  CAIN.ueD2DTx[8].nic.mac  racpkt:vector  ETV
attr interpolationmode  none
attr title  "eNB received racpkt message, vector"
vector 350  CAIN.ueD2DTx[8].nic.mac  racDistanceSignal:vector  ETV
attr interpolationmode  none
attr title  "Rac distance to enb, vector"
vector 339  CAIN.ueD2DTx[8].nic.mac  sentPacketToUpperLayer:vector(packetBytes)  ETV
attr interpolationmode  none
attr source  sentPacketToUpperLayer
vector 495  CAIN.ueD2DTx[0].tcp  tcpRcvQueueBytes  ETV
vector 482  CAIN.ueD2DTx[0].tcp  "advertised window"  ETV
vector 481  CAIN.ueD2DTx[0].tcp  "receive window"  ETV
vector 484  CAIN.ueD2DTx[0].tcp  "sent ack"  ETV
vector 117  CAIN.ueD2DTx[0].nic.pdcpRrc  receivedPacketFromUpperLayer:vector(packetBytes)  ETV
attr interpolationmode  none
attr source  receivedPacketFromUpperLayer
vector 120  CAIN.ueD2DTx[0].nic.pdcpRrc  sentPacketToLowerLayer:vector(packetBytes)  ETV
attr interpolationmode  none
attr source  sentPacketToLowerLayer
vector 121  CAIN.ueD2DTx[0].nic.mac  receivedPacketFromUpperLayer:vector(packetBytes)  ETV
attr interpolationmode  none
attr source  receivedPacketFromUpperLayer
vector 519  CAIN.ueD2DTx[2].tcp  tcpRcvQueueBytes  ETV
vector 506  CAIN.ueD2DTx[2].tcp  "advertised window"  ETV
vector 505  CAIN.ueD2DTx[2].tcp  "receive window"  ETV
vector 508  CAIN.ueD2DTx[2].tcp  "sent ack"  ETV
vector 171  CAIN.ueD2DTx[2].nic.pdcpRrc  receivedPacketFromUpperLayer:vector(packetBytes)  ETV
attr interpolationmode  none
attr source  receivedPacketFromUpperLayer
vector 174  CAIN.ueD2DTx[2].nic.pdcpRrc  sentPacketToLowerLayer:vector(packetBytes)  ETV
attr interpolationmode  none
attr source  sentPacketToLowerLayer
vector 175  CAIN.ueD2DTx[2].nic.mac  receivedPacketFromUpperLayer:vector(packetBytes)  ETV
attr interpolationmode  none
attr source  receivedPacketFromUpperLayer
vector 178  CAIN.ueD2DTx[2].nic.mac  sentPacketToLowerLayer:vector(packetBytes)  ETV
attr interpolationmode  none
attr source  sentPacketToLowerLayer
vector 543  CAIN.ueD2DTx[9].tcp  tcpRcvQueueBytes  ETV
vector 530  CAIN.ueD2DTx[9].tcp  "advertised window"  ETV
vector 529  CAIN.ueD2DTx[9].tcp  "receive window"  ETV
vector 532  CAIN.ueD2DTx[9].tcp  "sent ack"  ETV
vector 360  CAIN.ueD2DTx[9].nic.pdcpRrc  receivedPacketFromUpperLayer:vector(packetBytes)  ETV
attr interpolationmode  none
attr source  receivedPacketFromUpperLayer
vector 363  CAIN.ueD2DTx[9].nic.pdcpRrc  sentPacketToLowerLayer:vector(packetBytes)  ETV
attr interpolationmode  none
attr source  sentPacketToLowerLayer
vector 364  CAIN.ueD2DTx[9].nic.mac  receivedPacketFromUpperLayer:vector(packetBytes)  ETV
attr interpolationmode  none
attr source  receivedPacketFromUpperLayer
vector 367  CAIN.ueD2DTx[9].nic.mac  sentPacketToLowerLayer:vector(packetBytes)  ETV
attr interpolationmode  none
attr source  sentPacketToLowerLayer
vector 133  CAIN.ueD2DTx[0].nic.mac  racpkt:vector  ETV
attr interpolationmode  none
attr title  "eNB received racpkt message, vector"
vector 134  CAIN.ueD2DTx[0].nic.mac  racDistanceSignal:vector  ETV
attr interpolationmode  none
attr title  "Rac distance to enb, vector"
vector 176  CAIN.ueD2DTx[2].nic.mac  receivedPacketFromLowerLayer:vector(packetBytes)  ETV
attr interpolationmode  none
attr source  receivedPacketFromLowerLayer
vector 187  CAIN.ueD2DTx[2].nic.mac  racpkt:vector  ETV
attr interpolationmode  none
attr title  "eNB received racpkt message, vector"
vector 188  CAIN.ueD2DTx[2].nic.mac  racDistanceSignal:vector  ETV
attr interpolationmode  none
attr title  "Rac distance to enb, vector"
vector 365  CAIN.ueD2DTx[9].nic.mac  receivedPacketFromLowerLayer:vector(packetBytes)  ETV
attr interpolationmode  none
attr source  receivedPacketFromLowerLayer
vector 376  CAIN.ueD2DTx[9].nic.mac  racpkt:vector  ETV
attr interpolationmode  none
attr title  "eNB received racpkt message, vector"
vector 377  CAIN.ueD2DTx[9].nic.mac  racDistanceSignal:vector  ETV
attr interpolationmode  none
attr title  "Rac distance to enb, vector"
vector 177  CAIN.ueD2DTx[2].nic.mac  sentPacketToUpperLayer:vector(packetBytes)  ETV
attr interpolationmode  none
attr source  sentPacketToUpperLayer
vector 366  CAIN.ueD2DTx[9].nic.mac  sentPacketToUpperLayer:vector(packetBytes)  ETV
attr interpolationmode  none
attr source  sentPacketToUpperLayer
vector 164  CAIN.ueD2DTx[1].nic.phy  averageCqiD2Dvect:vector  ETV
attr source  averageCqiD2Dvect
attr title  "Average Cqi reported in D2D, vector"
attr unit  cqi
vector 149  CAIN.ueD2DTx[1].nic.mac  receivedPacketFromLowerLayer:vector(packetBytes)  ETV
attr interpolationmode  none
attr source  receivedPacketFromLowerLayer
vector 151  CAIN.ueD2DTx[1].nic.mac  sentPacketToLowerLayer:vector(packetBytes)  ETV
attr interpolationmode  none
attr source  sentPacketToLowerLayer
vector 150  CAIN.ueD2DTx[1].nic.mac  sentPacketToUpperLayer:vector(packetBytes)  ETV
attr interpolationmode  none
attr source  sentPacketToUpperLayer
vector 145  CAIN.ueD2DTx[1].nic.pdcpRrc  receivedPacketFromLowerLayer:vector(packetBytes)  ETV
attr interpolationmode  none
attr source  receivedPacketFromLowerLayer
vector 146  CAIN.ueD2DTx[1].nic.pdcpRrc  sentPacketToUpperLayer:vector(packetBytes)  ETV
attr interpolationmode  none
attr source  sentPacketToUpperLayer
vector 567  CAIN.ueD2DTx[6].tcp  tcpRcvQueueBytes  ETV
vector 554  CAIN.ueD2DTx[6].tcp  "advertised window"  ETV
vector 553  CAIN.ueD2DTx[6].tcp  "receive window"  ETV
vector 556  CAIN.ueD2DTx[6].tcp  "sent ack"  ETV
vector 279  CAIN.ueD2DTx[6].nic.pdcpRrc  receivedPacketFromUpperLayer:vector(packetBytes)  ETV
attr interpolationmode  none
attr source  receivedPacketFromUpperLayer
vector 282  CAIN.ueD2DTx[6].nic.pdcpRrc  sentPacketToLowerLayer:vector(packetBytes)  ETV
attr interpolationmode  none
attr source  sentPacketToLowerLayer
vector 283  CAIN.ueD2DTx[6].nic.mac  receivedPacketFromUpperLayer:vector(packetBytes)  ETV
attr interpolationmode  none
attr source  receivedPacketFromUpperLayer
vector 286  CAIN.ueD2DTx[6].nic.mac  sentPacketToLowerLayer:vector(packetBytes)  ETV
attr interpolationmode  none
attr source  sentPacketToLowerLayer
vector 284  CAIN.ueD2DTx[6].nic.mac  receivedPacketFromLowerLayer:vector(packetBytes)  ETV
attr interpolationmode  none
attr source  receivedPacketFromLowerLayer
vector 295  CAIN.ueD2DTx[6].nic.mac  racpkt:vector  ETV
attr interpolationmode  none
attr title  "eNB received racpkt message, vector"
vector 296  CAIN.ueD2DTx[6].nic.mac  racDistanceSignal:vector  ETV
attr interpolationmode  none
attr title  "Rac distance to enb, vector"
vector 285  CAIN.ueD2DTx[6].nic.mac  sentPacketToUpperLayer:vector(packetBytes)  ETV
attr interpolationmode  none
attr source  sentPacketToUpperLayer
vector 591  CAIN.ueD2DTx[3].tcp  tcpRcvQueueBytes  ETV
vector 578  CAIN.ueD2DTx[3].tcp  "advertised window"  ETV
vector 577  CAIN.ueD2DTx[3].tcp  "receive window"  ETV
vector 580  CAIN.ueD2DTx[3].tcp  "sent ack"  ETV
vector 198  CAIN.ueD2DTx[3].nic.pdcpRrc  receivedPacketFromUpperLayer:vector(packetBytes)  ETV
attr interpolationmode  none
attr source  receivedPacketFromUpperLayer
vector 201  CAIN.ueD2DTx[3].nic.pdcpRrc  sentPacketToLowerLayer:vector(packetBytes)  ETV
attr interpolationmode  none
attr source  sentPacketToLowerLayer
vector 202  CAIN.ueD2DTx[3].nic.mac  receivedPacketFromUpperLayer:vector(packetBytes)  ETV
attr interpolationmode  none
attr source  receivedPacketFromUpperLayer
vector 205  CAIN.ueD2DTx[3].nic.mac  sentPacketToLowerLayer:vector(packetBytes)  ETV
attr interpolationmode  none
attr source  sentPacketToLowerLayer
vector 615  CAIN.ueD2DTx[1].tcp  tcpRcvQueueBytes  ETV
vector 602  CAIN.ueD2DTx[1].tcp  "advertised window"  ETV
vector 601  CAIN.ueD2DTx[1].tcp  "receive window"  ETV
vector 604  CAIN.ueD2DTx[1].tcp  "sent ack"  ETV
vector 144  CAIN.ueD2DTx[1].nic.pdcpRrc  receivedPacketFromUpperLayer:vector(packetBytes)  ETV
attr interpolationmode  none
attr source  receivedPacketFromUpperLayer
vector 147  CAIN.ueD2DTx[1].nic.pdcpRrc  sentPacketToLowerLayer:vector(packetBytes)  ETV
attr interpolationmode  none
attr source  sentPacketToLowerLayer
vector 148  CAIN.ueD2DTx[1].nic.mac  receivedPacketFromUpperLayer:vector(packetBytes)  ETV
attr interpolationmode  none
attr source  receivedPacketFromUpperLayer
vector 203  CAIN.ueD2DTx[3].nic.mac  receivedPacketFromLowerLayer:vector(packetBytes)  ETV
attr interpolationmode  none
attr source  receivedPacketFromLowerLayer
vector 214  CAIN.ueD2DTx[3].nic.mac  racpkt:vector  ETV
attr interpolationmode  none
attr title  "eNB received racpkt message, vector"
vector 215  CAIN.ueD2DTx[3].nic.mac  racDistanceSignal:vector  ETV
attr interpolationmode  none
attr title  "Rac distance to enb, vector"
vector 160  CAIN.ueD2DTx[1].nic.mac  racpkt:vector  ETV
attr interpolationmode  none
attr title  "eNB received racpkt message, vector"
vector 161  CAIN.ueD2DTx[1].nic.mac  racDistanceSignal:vector  ETV
attr interpolationmode  none
attr title  "Rac distance to enb, vector"
vector 204  CAIN.ueD2DTx[3].nic.mac  sentPacketToUpperLayer:vector(packetBytes)  ETV
attr interpolationmode  none
attr source  sentPacketToUpperLayer
vector 137  CAIN.ueD2DTx[0].nic.phy  averageCqiD2Dvect:vector  ETV
attr source  averageCqiD2Dvect
attr title  "Average Cqi reported in D2D, vector"
attr unit  cqi
8	24381 8 0 0 0 0 1 0 0 0 0
9	24389 8 0 0 0 0 1 0 0 0 0
24	24397 9 0 0 0 0 1 0 0 0 0
25	24406 9 0 0 0 0 1 0 0 0 0
35	24415 9 0 0 0 0 1 0 0 0 0
36	24424 9 0 0 0 0 1 0 0 0 0
56	24433 9 0 0 0 0 1 0 0 0 0
57	24442 9 0 0 0 0 1 0 0 0 0
67	24451 9 0 0 0 0 1 0 0 0 0
68	24460 9 0 0 0 0 1 0 0 0 0
80	24469 428 715 172977 0.03 9.107 24 44 44 1056 46464
81	24897 428 710 172972 0.03 9.107 24 45 45 1080 48600
82	25325 428 710 172972 0.03 9.107 24 44 44 1056 46464
83	25753 428 715 172977 0.03 9.107 24 45 45 1080 48600
84	26181 857 718 173008 0.03 9.108 48 45 47 2208 101616
85	27038 288667 100 189760 0.002 9.998 16788 0 0 0 0
86	315705 1079 533 173002 0.024 9.108 62 0 47 1156 44634
87	316784 3478 389 173019 0.017 9.108 206 0 0 0 0
88	320262 1173 533 173002 0.024 9.108 66 5 26 1443 35185
96	321435 777 389 172821 0.017 9.101 44 1 44 990 29370
97	322212 830 389 172821 0.017 9.101 44 157 280 9968 2375460
99	323042 863 491 172951 0.021 9.105 50 4 15 536 6716
104	323905 10 0 0 0 0 1 0 0 0 0
105	323915 10 0 0 0 0 1 0 0 0 0
117	323925 84 1105 171330 0.042121352858 9.042121352858 3 44 44 132 5808
118	324009 511 875 173113 0.035 9.112 27 45 45 1215 54675
119	324520 511 875 173113 0.035 9.112 27 44 44 1188 52272
120	325031 84 1105 171330 0.042121352858 9.042121352858 3 45 45 135 6075
121	325115 141 1108 171707 0.042121352858 9.053 6 45 47 276 12702
122	325256 967 804 173060 0.032 9.109 54 0 0 0 0
123	326223 565 871 173109 0.035 9.112 30 0 47 1269 59643
124	326788 754 871 173109 0.035 9.112 42 0 0 0 0
133	327542 105 1246 171632 0.045 9.05 6 1 6 21 91
134	327647 105 1246 171632 0.045 9.05 6 0 0 0 0
135	327752 454 803 173059 0.032 9.109 24 15 15 360 5400
137	328206 57 2706 172965 0.106 9.106 3 15 15 45 675
138	328263 10 0 0 0 0 1 1 1 1 1
144	328273 84 2368 172626 0.094045599147 9.094045599147 3 44 44 132 5808
145	328357 57 1609 171849 0.057 9.057 3 45 45 135 6075
146	328414 57 1609 171849 0.057 9.057 3 44 44 132 5808
147	328471 84 2368 172626 0.094045599147 9.094045599147 3 45 45 135 6075
148	328555 141 2371 172939 0.094045599147 9.105 6 45 47 276 12702
149	328696 537 1532 173095 0.054 9.11 30 0 0 0 0
150	329233 111 1605 172935 0.057 9.105 6 0 47 141 6627
151	329344 318 1605 172949 0.057 9.105 18 0 0 0 0
160	329662 108 2454 172855 0.097 9.102 6 1 6 21 91
161	329770 108 2454 172855 0.097 9.102 6 0 0 0 0
164	329878 57 1531 171760 0.054 9.054 3 15 15 45 675
165	329935 10 0 0 0 0 1 1 1 1 1
171	329945 84 1113 171337 0.042969444403 9.042969444403 3 44 44 132 5808
174	330029 84 1113 171337 0.042969444403 9.042969444403 3 45 45 135 6075
175	330113 180 1116 171713 0.042969444403 9.053 8 3 47 280 11654
176	330293 310 1248 171890 0.045 9.058 17 0 0 0 0
177	330603 92 1280 171709 0.047 9.053 5 0 0 0 0
178	330695 165 1139 171725 0.043 9.053 9 0 0 0 0
187	330860 72 1248 171634 0.045 9.05 4 1 4 10 30
188	330932 72 1248 171634 0.045 9.05 4 0 0 0 0
192	331004 10 0 0 0 0 1 1 1 1 1
198	331014 84 2334 172593 0.093352724272 9.093352724272 3 44 44 132 5808
201	331098 84 2334 172593 0.093352724272 9.093352724272 3 45 45 135 6075
202	331182 161 2337 172876 0.093352724272 9.103 7 19 47 278 11754
203	331343 292 2427 173024 0.096 9.108 16 0 0 0 0
204	331635 73 2459 172872 0.098 9.103 4 0 0 0 0
205	331708 146 2355 172884 0.094 9.103 8 0 0 0 0
214	331854 73 2427 172824 0.096 9.101 4 1 4 10 30
215	331927 73 2427 172824 0.096 9.101 4 0 0 0 0
219	332000 10 0 0 0 0 1 1 1 1 1
225	332010 83 359 170600 0.015271066679 9.015271066679 3 44 44 132 5808
228	332093 83 359 170600 0.015271066679 9.015271066679 3 45 45 135 6075
229	332176 224 362 170818 0.015271066679 9.025 11 7 45 286 10270
230	332400 452 415 170968 0.018 9.03 26 0 0 0 0
231	332852 137 445 170814 0.02 9.025 8 0 0 0 0
232	332989 243 368 170826 0.016 9.025 14 0 0 0 0
241	333232 106 415 170763 0.018 9.023 6 1 6 21 91
242	333338 106 415 170763 0.018 9.023 6 0 0 0 0
246	333444 10 0 0 0 0 1 1 1 1 1
252	333454 83 692 170933 0.029794597295 9.029794597295 3 44 44 132 5808
255	333537 83 692 170933 0.029794597295 9.029794597295 3 45 45 135 6075
256	333620 250 695 171268 0.029794597295 9.04 12 15 45 288 8748
257	333870 483 806 171464 0.032 9.045 27 0 0 0 0
258	334353 158 852 171264 0.034 9.04 9 0 0 0 0
259	334511 261 724 171274 0.03 9.04 15 0 0 0 0
268	334772 106 806 171180 0.032 9.037 6 1 6 21 91
269	334878 106 806 171180 0.032 9.037 6 0 0 0 0
273	334984 10 0 0 0 0 1 1 1 1 1
279	334994 84 2153 172413 0.085841021361 9.085841021361 3 44 44 132 5808
282	335078 84 2153 172413 0.085841021361 9.085841021361 3 45 45 135 6075
283	335162 138 2156 172515 0.085841021361 9.09 6 45 47 276 12702
284	335300 216 2219 172651 0.088 9.095 12 0 0 0 0
285	335516 51 2251 172511 0.09 9.09 3 0 0 0 0
286	335567 105 2164 172520 0.086 9.09 6 0 0 0 0
295	335672 54 2219 172479 0.088 9.088 3 1 3 6 14
296	335726 54 2219 172479 0.088 9.088 3 0 0 0 0
300	335780 10 0 0 0 0 1 1 1 1 1
306	335790 83 555 170795 0.024730577224 9.024730577224 3 44 44 132 5808
309	335873 83 555 170795 0.024730577224 9.024730577224 3 45 45 135 6075
310	335956 139 558 170924 0.024730577224 9.029 6 45 47 276 12702
311	336095 212 651 171102 0.027 9.034 12 0 0 0 0
312	336307 53 678 170920 0.029 9.029 3 0 0 0 0
313	336360 106 581 170928 0.025 9.029 6 0 0 0 0
322	336466 53 651 170884 0.027 9.027 3 1 3 6 14
323	336519 53 651 170884 0.027 9.027 3 0 0 0 0
327	336572 10 0 0 0 0 1 1 1 1 1
333	336582 83 838 171064 0.033422728663 9.033422728663 3 44 44 132 5808
336	336665 83 838 171064 0.033422728663 9.033422728663 3 45 45 135 6075
337	336748 139 841 171205 0.033422728663 9.038 6 45 47 276 12702
338	336887 214 927 171377 0.036 9.043 12 0 0 0 0
339	337101 53 975 171201 0.038 9.038 3 0 0 0 0
340	337154 106 859 171208 0.034 9.038 6 0 0 0 0
349	337260 53 927 171153 0.036 9.036 3 1 3 6 14
350	337313 53 927 171153 0.036 9.036 3 0 0 0 0
354	337366 10 0 0 0 0 1 1 1 1 1
360	337376 84 1158 171381 0.043409565084 9.043409565084 3 44 44 132 5808
363	337460 84 1158 171381 0.043409565084 9.043409565084 3 45 45 135 6075
364	337544 141 1161 171548 0.043409565084 9.048 6 45 47 276 12702
365	337685 216 1269 171730 0.046 9.053 12 0 0 0 0
366	337901 54 1320 171544 0.048 9.048 3 0 0 0 0
367	337955 108 1184 171550 0.044 9.048 6 0 0 0 0
376	338063 54 1269 171492 0.046 9.046 3 1 3 6 14
377	338117 54 1269 171492 0.046 9.046 3 0 0 0 0
381	338171 10 0 0 0 0 1 1 1 1 1
385	338181 89 356 170597 0.015271066679 9.015271066679 3 7504 7504 22512 168930048
386	338270 89 356 170597 0.015271066679 9.015271066679 3 7504 7504 22512 168930048
388	338359 80 356 170597 0.015271066679 9.015271066679 3 0 0 0 0
399	338439 80 356 170597 0.015271066679 9.015271066679 3 0 0 0 0
409	338519 89 552 170792 0.024730577224 9.024730577224 3 7504 7504 22512 168930048
410	338608 89 552 170792 0.024730577224 9.024730577224 3 7504 7504 22512 168930048
412	338697 80 552 170792 0.024730577224 9.024730577224 3 0 0 0 0
423	338777 80 552 170792 0.024730577224 9.024730577224 3 0 0 0 0
433	338857 89 689 170930 0.029794597295 9.029794597295 3 7504 7504 22512 168930048
434	338946 89 689 170930 0.029794597295 9.029794597295 3 7504 7504 22512 168930048
436	339035 80 689 170930 0.029794597295 9.029794597295 3 0 0 0 0
447	339115 80 689 170930 0.029794597295 9.029794597295 3 0 0 0 0
457	339195 89 835 171061 0.033422728663 9.033422728663 3 7504 7504 22512 168930048
458	339284 89 835 171061 0.033422728663 9.033422728663 3 7504 7504 22512 168930048
460	339373 80 835 171061 0.033422728663 9.033422728663 3 0 0 0 0
471	339453 80 835 171061 0.033422728663 9.033422728663 3 0 0 0 0
481	339533 90 1102 171327 0.042121352858 9.042121352858 3 7504 7504 22512 168930048
482	339623 90 1102 171327 0.042121352858 9.042121352858 3 7504 7504 22512 168930048
484	339713 81 1102 171327 0.042121352858 9.042121352858 3 0 0 0 0
495	339794 81 1102 171327 0.042121352858 9.042121352858 3 0 0 0 0
505	339875 90 1110 171334 0.042969444403 9.042969444403 3 7504 7504 22512 168930048
506	339965 90 1110 171334 0.042969444403 9.042969444403 3 7504 7504 22512 168930048
508	340055 81 1110 171334 0.042969444403 9.042969444403 3 0 0 0 0
519	340136 81 1110 171334 0.042969444403 9.042969444403 3 0 0 0 0
529	340217 90 1155 171378 0.043409565084 9.043409565084 3 7504 7504 22512 168930048
530	340307 90 1155 171378 0.043409565084 9.043409565084 3 7504 7504 22512 168930048
532	340397 81 1155 171378 0.043409565084 9.043409565084 3 0 0 0 0
543	340478 81 1155 171378 0.043409565084 9.043409565084 3 0 0 0 0
553	340559 90 2150 172410 0.085841021361 9.085841021361 3 7504 7504 22512 168930048
554	340649 90 2150 172410 0.085841021361 9.085841021361 3 7504 7504 22512 168930048
556	340739 81 2150 172410 0.085841021361 9.085841021361 3 0 0 0 0
567	340820 81 2150 172410 0.085841021361 9.085841021361 3 0 0 0 0
577	340901 90 2331 172590 0.093352724272 9.093352724272 3 7504 7504 22512 168930048
578	340991 90 2331 172590 0.093352724272 9.093352724272 3 7504 7504 22512 168930048
580	341081 81 2331 172590 0.093352724272 9.093352724272 3 0 0 0 0
591	341162 81 2331 172590 0.093352724272 9.093352724272 3 0 0 0 0
601	341243 90 2365 172623 0.094045599147 9.094045599147 3 7504 7504 22512 168930048
602	341333 90 2365 172623 0.094045599147 9.094045599147 3 7504 7504 22512 168930048
604	341423 81 2365 172623 0.094045599147 9.094045599147 3 0 0 0 0
615	341504 81 2365 172623 0.094045599147 9.094045599147 3 0 0 0 0
