version 2
run CAIN-30-20200508-15:38:00-11026
attr configname CAIN
attr datetime 20200508-15:38:00
attr dist 200
attr experiment CAIN
attr extAllocType "\"FULL_ALLOC\""
attr inifile omnetpp.ini
attr iterationvars "$numUe=20, $pwr=-50, $dist=200, $mob=\"./movements/RPGM-0.0.movements\", $extAllocType=\"FULL_ALLOC\""
attr iterationvars2 "$numUe=20, $pwr=-50, $dist=200, $mob=\"./movements/RPGM-0.0.movements\", $extAllocType=\"FULL_ALLOC\", $repetition=0"
attr measurement "$numUe=20, $pwr=-50, $dist=200, $mob=\"./movements/RPGM-0.0.movements\", $extAllocType=\"FULL_ALLOC\""
attr mob "\"./movements/RPGM-0.0.movements\""
attr network lte.simulations.networks.CAIN
attr numUe 20
attr processid 11026
attr pwr -50
attr repetition 0
attr replication #0
attr resultdir results
attr runnumber 30
attr seedset 0
param **.**.amcMode "\"AUTO\""
param **.amcMode "\"D2D\""
param **.cainNetwork true
param **.channelControl.alpha 1.0
param **.channelControl.carrierFrequency 2100e+6Hz
param **.channelControl.pMax 10W
param **.d2dCqi 7
param **.deployer.numRbDl 50
param **.deployer.numRbUl 50
param **.distThresh ${dist=200}
param **.fbDelay 1
param **.feedbackComputation "xmldoc(\"config_channel.xml\")"
param **.mobility.constraintAreaMaxX 1000m
param **.mobility.constraintAreaMaxY 1000m
param **.mobility.constraintAreaMaxZ 0m
param **.mobility.constraintAreaMinX 0m
param **.mobility.constraintAreaMinY 0m
param **.mobility.constraintAreaMinZ 0m
param **.nic.phy.channelModel "xmldoc(\"config_channel.xml\")"
param **.numBands 50
param **.pwrThresh "${pwr= -50}"
param **.qtdThresh 3
param **.rbAllocationType "\"localized\""
param **.routingRecorder.enabled false
param **.tcpApp[*].tClose -1s
param **.ueD2DTx[*].mobility.changeAngleBy "normal(0deg, 30deg)"
param **.ueD2DTx[*].mobility.changeInterval "normal(5s, 0.1s)"
param **.ueD2DTx[*].mobility.nodeId -1
param **.ueD2DTx[*].mobility.speed "normal(2mps, 0.01mps)"
param **.ueD2DTx[*].mobility.traceFile "${mob=\"./movements/RWP-0.0.movements\",\"./movements/RWP-0.5.movements\",\"./movements/RPGM-0.0.movements\",\"./movements/RPGM-0.5.movements\",\"./movements/RWPRPGM-0.0.movements\",\"./movements/RWPRPGM-0.5.movements\"}"
param **.ueD2DTx[*].mobilityType "\"BonnMotionMobility\""
param **.usePreconfiguredTxParams false
param *.eNodeB*.numX2Apps 1
param *.eNodeB*.x2App[*].server.localPort "5000 + ancestorIndex(1)"
param *.eNodeB.d2dCapable false
param *.eNodeB.mobility.initFromDisplayString false
param *.eNodeB.mobility.initialX 300m
param *.eNodeB.mobility.initialY 300m
param *.eNodeB.nic.phy.enableD2DCqiReporting true
param *.eNodeB.txPower 19952.62315mw
param *.eNodeB.x2App[0].client.connectAddress "\"eNodeB1%x2ppp0\""
param *.eNodeB1.d2dCapable true
param *.eNodeB1.mobility.initFromDisplayString false
param *.eNodeB1.mobility.initialX 700m
param *.eNodeB1.mobility.initialY 300m
param *.eNodeB1.nic.phy.enableD2DCqiReporting true
param *.eNodeB1.txPower 19952.62315mw
param *.eNodeB1.x2App[0].client.connectAddress "\"eNodeB%x2ppp0\""
param *.extCell[*].bandAllocationType "${extAllocType=\"FULL_ALLOC\",\"RANDOM_ALLOC\",\"CONTIGUOUS_ALLOC\"}"
param *.extCell[*].bandUtilization 0.5
param *.extCell[*].txDirection "\"ANISOTROPIC\""
param *.extCell[*].txPower 20
param *.extCell[0].position_x 100m
param *.extCell[0].position_y 600m
param *.extCell[0].txAngle 315
param *.extCell[1].position_x 600m
param *.extCell[1].position_y 600m
param *.extCell[1].txAngle 225
param *.numExtCells 2
param *.numUeCell 0
param *.numUeD2DRx 1
param *.numUeD2DTx 1
param *.ue*.macCellId 1
param *.ue*.masterId 1
param *.ue*.mobility.initFromDisplayString false
param *.ue*[0].macCellId 1
param *.ue*[0].masterId 1
param *.ue*[0].mobility.initFromDisplayString false
param *.ueD2D*.numTcpApps 1
param *.ueD2D*[*].d2dCapable true
param *.ueD2D*[0].d2dCapable false
param *.ueD2D*[0].numTcpApps 1
param *.ueD2DRx[0].mobility.initialX 310m
param *.ueD2DRx[0].mobility.initialY 350m
param *.ueD2DRx[0].tcpApp[*].localPort 1000
param *.ueD2DRx[0].tcpApp[*].typename "\"TCPSinkApp\""
param *.ueD2DTx*.nic.d2dPeerAddresses "\"ueD2DTx[1]\""
param *.ueD2DTx*.tcpApp[*].connectAddress "\"ueD2DTx[0]\""
param *.ueD2DTx*.tcpApp[*].localAddress "\"ueD2DTx\""
param *.ueD2DTx*.tcpApp[*].localPort 1000
param *.ueD2DTx*.tcpApp[*].sendBytes 1GiB
param *.ueD2DTx*.tcpApp[*].typename "\"TCPSessionApp\""
param *.ueD2DTx*.tcpApp[0].active true
param *.ueD2DTx*.tcpApp[0].connectPort 1000
param *.ueD2DTx*.tcpApp[0].tOpen uniform(0.010s,0.1s)
param *.ueD2DTx*.tcpApp[0].tSend uniform(0.15s,0.5s)
param *.ueD2DTx[0].mobility.initialX 290m
param *.ueD2DTx[0].mobility.initialY 350m
param *.ueD2DTx[0].tcpApp[*].localPort 1000
param *.ueD2DTx[0].tcpApp[*].sendBytes 1GiB
param *.ueD2DTx[0].tcpApp[*].typename "\"TCPSessionApp\""
param *.ueD2DTx[0].tcpApp[0].active true
param *.ueD2DTx[0].tcpApp[0].connectAddress "\"ueD2DRx[0]\""
param *.ueD2DTx[0].tcpApp[0].connectPort 1000
param *.ueD2DTx[0].tcpApp[0].localAddress "\"ueD2DTx[0]\""
param *.ueD2DTx[0].tcpApp[0].tOpen uniform(0.010s,0.1s)
param *.ueD2DTx[0].tcpApp[0].tSend uniform(0.15s,0.5s)
param *.ueD2DTx[1].mobility.initialX 690m
param *.ueD2DTx[1].mobility.initialY 250m

vector 8  CAIN.server.ppp[0].queue  queueLength:vector  ETV
attr interpolationmode  sample-hold
attr title  "queue length, vector"
vector 9  CAIN.server.ppp[0].ppp  txState:vector  ETV
attr interpolationmode  sample-hold
attr title  "tx state, vector"
vector 24  CAIN.router.ppp[0].queue  queueLength:vector  ETV
attr interpolationmode  sample-hold
attr title  "queue length, vector"
vector 25  CAIN.router.ppp[0].ppp  txState:vector  ETV
attr interpolationmode  sample-hold
attr title  "tx state, vector"
vector 35  CAIN.router.ppp[1].queue  queueLength:vector  ETV
attr interpolationmode  sample-hold
attr title  "queue length, vector"
vector 36  CAIN.router.ppp[1].ppp  txState:vector  ETV
attr interpolationmode  sample-hold
attr title  "tx state, vector"
vector 56  CAIN.pgw.ppp[0].queue  queueLength:vector  ETV
attr interpolationmode  sample-hold
attr title  "queue length, vector"
vector 57  CAIN.pgw.ppp[0].ppp  txState:vector  ETV
attr interpolationmode  sample-hold
attr title  "tx state, vector"
vector 67  CAIN.pgw.ppp[1].queue  queueLength:vector  ETV
attr interpolationmode  sample-hold
attr title  "queue length, vector"
vector 68  CAIN.pgw.ppp[1].ppp  txState:vector  ETV
attr interpolationmode  sample-hold
attr title  "tx state, vector"
vector 78  CAIN.pgw.pppInterface.queue  queueLength:vector  ETV
attr interpolationmode  sample-hold
attr title  "queue length, vector"
vector 79  CAIN.pgw.pppInterface.ppp  txState:vector  ETV
attr interpolationmode  sample-hold
attr title  "tx state, vector"
vector 120  CAIN.eNodeB.pppIf.queue  queueLength:vector  ETV
attr interpolationmode  sample-hold
attr title  "queue length, vector"
vector 121  CAIN.eNodeB.pppIf.ppp  txState:vector  ETV
attr interpolationmode  sample-hold
attr title  "tx state, vector"
vector 131  CAIN.eNodeB.x2ppp[0].queue  queueLength:vector  ETV
attr interpolationmode  sample-hold
attr title  "queue length, vector"
vector 132  CAIN.eNodeB.x2ppp[0].ppp  txState:vector  ETV
attr interpolationmode  sample-hold
attr title  "tx state, vector"
vector 178  CAIN.eNodeB1.pppIf.queue  queueLength:vector  ETV
attr interpolationmode  sample-hold
attr title  "queue length, vector"
vector 179  CAIN.eNodeB1.pppIf.ppp  txState:vector  ETV
attr interpolationmode  sample-hold
attr title  "tx state, vector"
vector 189  CAIN.eNodeB1.x2ppp[0].queue  queueLength:vector  ETV
attr interpolationmode  sample-hold
attr title  "queue length, vector"
vector 190  CAIN.eNodeB1.x2ppp[0].ppp  txState:vector  ETV
attr interpolationmode  sample-hold
attr title  "tx state, vector"
vector 231  CAIN.ueD2DTx[0].nic.phy  servingCell:vector  ETV
attr source  servingCell
attr title  "ID of the serving eNodeB for the UE, vector"
attr unit  ""
vector 263  CAIN.ueD2DTx[1].nic.phy  servingCell:vector  ETV
attr source  servingCell
attr title  "ID of the serving eNodeB for the UE, vector"
attr unit  ""
vector 295  CAIN.ueD2DTx[2].nic.phy  servingCell:vector  ETV
attr source  servingCell
attr title  "ID of the serving eNodeB for the UE, vector"
attr unit  ""
vector 327  CAIN.ueD2DTx[3].nic.phy  servingCell:vector  ETV
attr source  servingCell
attr title  "ID of the serving eNodeB for the UE, vector"
attr unit  ""
vector 359  CAIN.ueD2DTx[4].nic.phy  servingCell:vector  ETV
attr source  servingCell
attr title  "ID of the serving eNodeB for the UE, vector"
attr unit  ""
vector 391  CAIN.ueD2DTx[5].nic.phy  servingCell:vector  ETV
attr source  servingCell
attr title  "ID of the serving eNodeB for the UE, vector"
attr unit  ""
vector 423  CAIN.ueD2DTx[6].nic.phy  servingCell:vector  ETV
attr source  servingCell
attr title  "ID of the serving eNodeB for the UE, vector"
attr unit  ""
vector 455  CAIN.ueD2DTx[7].nic.phy  servingCell:vector  ETV
attr source  servingCell
attr title  "ID of the serving eNodeB for the UE, vector"
attr unit  ""
vector 487  CAIN.ueD2DTx[8].nic.phy  servingCell:vector  ETV
attr source  servingCell
attr title  "ID of the serving eNodeB for the UE, vector"
attr unit  ""
vector 519  CAIN.ueD2DTx[9].nic.phy  servingCell:vector  ETV
attr source  servingCell
attr title  "ID of the serving eNodeB for the UE, vector"
attr unit  ""
vector 551  CAIN.ueD2DTx[10].nic.phy  servingCell:vector  ETV
attr source  servingCell
attr title  "ID of the serving eNodeB for the UE, vector"
attr unit  ""
vector 583  CAIN.ueD2DTx[11].nic.phy  servingCell:vector  ETV
attr source  servingCell
attr title  "ID of the serving eNodeB for the UE, vector"
attr unit  ""
vector 615  CAIN.ueD2DTx[12].nic.phy  servingCell:vector  ETV
attr source  servingCell
attr title  "ID of the serving eNodeB for the UE, vector"
attr unit  ""
vector 647  CAIN.ueD2DTx[13].nic.phy  servingCell:vector  ETV
attr source  servingCell
attr title  "ID of the serving eNodeB for the UE, vector"
attr unit  ""
vector 679  CAIN.ueD2DTx[14].nic.phy  servingCell:vector  ETV
attr source  servingCell
attr title  "ID of the serving eNodeB for the UE, vector"
attr unit  ""
vector 711  CAIN.ueD2DTx[15].nic.phy  servingCell:vector  ETV
attr source  servingCell
attr title  "ID of the serving eNodeB for the UE, vector"
attr unit  ""
vector 743  CAIN.ueD2DTx[16].nic.phy  servingCell:vector  ETV
attr source  servingCell
attr title  "ID of the serving eNodeB for the UE, vector"
attr unit  ""
vector 775  CAIN.ueD2DTx[17].nic.phy  servingCell:vector  ETV
attr source  servingCell
attr title  "ID of the serving eNodeB for the UE, vector"
attr unit  ""
vector 807  CAIN.ueD2DTx[18].nic.phy  servingCell:vector  ETV
attr source  servingCell
attr title  "ID of the serving eNodeB for the UE, vector"
attr unit  ""
vector 839  CAIN.ueD2DTx[19].nic.phy  servingCell:vector  ETV
attr source  servingCell
attr title  "ID of the serving eNodeB for the UE, vector"
attr unit  ""
vector 863  CAIN.eNodeB.sctp  "Throughput of Association 3"  ETV
vector 885  CAIN.eNodeB1.sctp  "Throughput of Association 4"  ETV
vector 907  CAIN.eNodeB.sctp  "Throughput of Association 1"  ETV
vector 927  CAIN.eNodeB.sctp  "Fast Recovery State 1:10.0.5.2"  ETV
vector 956  CAIN.eNodeB1.sctp  "Throughput of Association 2"  ETV
vector 976  CAIN.eNodeB1.sctp  "Fast Recovery State 2:10.0.5.1"  ETV
vector 128  CAIN.eNodeB.x2ppp[0].queue  rcvdPk:vector(packetBytes)  ETV
attr interpolationmode  none
attr title  "received packets, vector(packetBytes)"
vector 130  CAIN.eNodeB.x2ppp[0].queue  queueingTime:vector  ETV
attr interpolationmode  none
attr title  "queueing time, vector"
vector 186  CAIN.eNodeB1.x2ppp[0].queue  rcvdPk:vector(packetBytes)  ETV
attr interpolationmode  none
attr title  "received packets, vector(packetBytes)"
vector 188  CAIN.eNodeB1.x2ppp[0].queue  queueingTime:vector  ETV
attr interpolationmode  none
attr title  "queueing time, vector"
vector 137  CAIN.eNodeB.x2ppp[0].ppp  rcvdPkFromHL:vector(packetBytes)  ETV
attr interpolationmode  none
attr source  packetReceivedFromUpper
attr title  "packets received from higher layer, vector(packetBytes)"
vector 133  CAIN.eNodeB.x2ppp[0].ppp  txPk:vector(packetBytes)  ETV
attr interpolationmode  none
attr source  packetSentToLower
attr title  "packets transmitted, vector(packetBytes)"
vector 195  CAIN.eNodeB1.x2ppp[0].ppp  rcvdPkFromHL:vector(packetBytes)  ETV
attr interpolationmode  none
attr source  packetReceivedFromUpper
attr title  "packets received from higher layer, vector(packetBytes)"
vector 191  CAIN.eNodeB1.x2ppp[0].ppp  txPk:vector(packetBytes)  ETV
attr interpolationmode  none
attr source  packetSentToLower
attr title  "packets transmitted, vector(packetBytes)"
vector 192  CAIN.eNodeB1.x2ppp[0].ppp  rxPkOk:vector(packetBytes)  ETV
attr interpolationmode  none
attr source  rxPkOk
attr title  "packets received OK, vector(packetBytes)"
vector 196  CAIN.eNodeB1.x2ppp[0].ppp  passedUpPk:vector(packetBytes)  ETV
attr interpolationmode  none
attr source  packetSentToUpper
attr title  "packets passed to higher layer, vector(packetBytes)"
vector 134  CAIN.eNodeB.x2ppp[0].ppp  rxPkOk:vector(packetBytes)  ETV
attr interpolationmode  none
attr source  rxPkOk
attr title  "packets received OK, vector(packetBytes)"
vector 138  CAIN.eNodeB.x2ppp[0].ppp  passedUpPk:vector(packetBytes)  ETV
attr interpolationmode  none
attr source  packetSentToUpper
attr title  "packets passed to higher layer, vector(packetBytes)"
vector 1005  CAIN.eNodeB1.sctp  "Throughput of Association 4"  ETV
vector 882  CAIN.eNodeB1.sctp  "Peer Rwnd 4"  ETV
vector 1025  CAIN.eNodeB1.sctp  "Fast Recovery State 5:10.0.4.1"  ETV
vector 1052  CAIN.eNodeB1.sctp  "Fast Recovery State 5:10.0.2.2"  ETV
vector 1079  CAIN.eNodeB1.sctp  "Fast Recovery State 5:10.0.5.1"  ETV
vector 1108  CAIN.eNodeB.sctp  "Throughput of Association 3"  ETV
vector 860  CAIN.eNodeB.sctp  "Peer Rwnd 3"  ETV
vector 1128  CAIN.eNodeB.sctp  "Fast Recovery State 6:10.0.4.2"  ETV
vector 1155  CAIN.eNodeB.sctp  "Fast Recovery State 6:10.0.3.2"  ETV
vector 1182  CAIN.eNodeB.sctp  "Fast Recovery State 6:10.0.5.2"  ETV
vector 904  CAIN.eNodeB.sctp  "Peer Rwnd 1"  ETV
vector 1209  CAIN.eNodeB.sctp  "Fast Recovery State 1:10.0.4.2"  ETV
vector 1236  CAIN.eNodeB.sctp  "Fast Recovery State 1:10.0.3.2"  ETV
vector 953  CAIN.eNodeB1.sctp  "Peer Rwnd 2"  ETV
vector 1263  CAIN.eNodeB1.sctp  "Fast Recovery State 2:10.0.4.1"  ETV
vector 1290  CAIN.eNodeB1.sctp  "Fast Recovery State 2:10.0.2.2"  ETV
vector 1035  CAIN.eNodeB1.sctp  "Slow Start Threshold 5:10.0.2.2"  ETV
vector 1036  CAIN.eNodeB1.sctp  "Congestion Window 5:10.0.2.2"  ETV
vector 1037  CAIN.eNodeB1.sctp  "Bandwidth 5:10.0.2.2"  ETV
vector 1040  CAIN.eNodeB1.sctp  "HB Sent 5:10.0.2.2"  ETV
vector 1033  CAIN.eNodeB1.sctp  "RTO 5:10.0.2.2"  ETV
vector 1008  CAIN.eNodeB1.sctp  "Slow Start Threshold 5:10.0.4.1"  ETV
vector 1009  CAIN.eNodeB1.sctp  "Congestion Window 5:10.0.4.1"  ETV
vector 1010  CAIN.eNodeB1.sctp  "Bandwidth 5:10.0.4.1"  ETV
vector 1013  CAIN.eNodeB1.sctp  "HB Sent 5:10.0.4.1"  ETV
vector 1006  CAIN.eNodeB1.sctp  "RTO 5:10.0.4.1"  ETV
vector 1062  CAIN.eNodeB1.sctp  "Slow Start Threshold 5:10.0.5.1"  ETV
vector 1063  CAIN.eNodeB1.sctp  "Congestion Window 5:10.0.5.1"  ETV
vector 1064  CAIN.eNodeB1.sctp  "Bandwidth 5:10.0.5.1"  ETV
vector 1060  CAIN.eNodeB1.sctp  "RTO 5:10.0.5.1"  ETV
vector 1138  CAIN.eNodeB.sctp  "Slow Start Threshold 6:10.0.3.2"  ETV
vector 1139  CAIN.eNodeB.sctp  "Congestion Window 6:10.0.3.2"  ETV
vector 1140  CAIN.eNodeB.sctp  "Bandwidth 6:10.0.3.2"  ETV
vector 1143  CAIN.eNodeB.sctp  "HB Sent 6:10.0.3.2"  ETV
vector 1136  CAIN.eNodeB.sctp  "RTO 6:10.0.3.2"  ETV
vector 1111  CAIN.eNodeB.sctp  "Slow Start Threshold 6:10.0.4.2"  ETV
vector 1112  CAIN.eNodeB.sctp  "Congestion Window 6:10.0.4.2"  ETV
vector 1113  CAIN.eNodeB.sctp  "Bandwidth 6:10.0.4.2"  ETV
vector 1116  CAIN.eNodeB.sctp  "HB Sent 6:10.0.4.2"  ETV
vector 1109  CAIN.eNodeB.sctp  "RTO 6:10.0.4.2"  ETV
vector 1165  CAIN.eNodeB.sctp  "Slow Start Threshold 6:10.0.5.2"  ETV
vector 1166  CAIN.eNodeB.sctp  "Congestion Window 6:10.0.5.2"  ETV
vector 1167  CAIN.eNodeB.sctp  "Bandwidth 6:10.0.5.2"  ETV
vector 1163  CAIN.eNodeB.sctp  "RTO 6:10.0.5.2"  ETV
vector 916  CAIN.eNodeB.sctp  "HB ACK Sent 1:10.0.5.2"  ETV
vector 917  CAIN.eNodeB.sctp  "HB Received 1:10.0.5.2"  ETV
vector 965  CAIN.eNodeB1.sctp  "HB ACK Sent 2:10.0.5.1"  ETV
vector 966  CAIN.eNodeB1.sctp  "HB Received 2:10.0.5.1"  ETV
vector 1219  CAIN.eNodeB.sctp  "Slow Start Threshold 1:10.0.3.2"  ETV
vector 1220  CAIN.eNodeB.sctp  "Congestion Window 1:10.0.3.2"  ETV
vector 1221  CAIN.eNodeB.sctp  "Bandwidth 1:10.0.3.2"  ETV
vector 1224  CAIN.eNodeB.sctp  "HB Sent 1:10.0.3.2"  ETV
vector 1217  CAIN.eNodeB.sctp  "RTO 1:10.0.3.2"  ETV
vector 1192  CAIN.eNodeB.sctp  "Slow Start Threshold 1:10.0.4.2"  ETV
vector 1193  CAIN.eNodeB.sctp  "Congestion Window 1:10.0.4.2"  ETV
vector 1194  CAIN.eNodeB.sctp  "Bandwidth 1:10.0.4.2"  ETV
vector 1197  CAIN.eNodeB.sctp  "HB Sent 1:10.0.4.2"  ETV
vector 1190  CAIN.eNodeB.sctp  "RTO 1:10.0.4.2"  ETV
vector 910  CAIN.eNodeB.sctp  "Slow Start Threshold 1:10.0.5.2"  ETV
vector 911  CAIN.eNodeB.sctp  "Congestion Window 1:10.0.5.2"  ETV
vector 912  CAIN.eNodeB.sctp  "Bandwidth 1:10.0.5.2"  ETV
vector 908  CAIN.eNodeB.sctp  "RTO 1:10.0.5.2"  ETV
vector 1273  CAIN.eNodeB1.sctp  "Slow Start Threshold 2:10.0.2.2"  ETV
vector 1274  CAIN.eNodeB1.sctp  "Congestion Window 2:10.0.2.2"  ETV
vector 1275  CAIN.eNodeB1.sctp  "Bandwidth 2:10.0.2.2"  ETV
vector 1278  CAIN.eNodeB1.sctp  "HB Sent 2:10.0.2.2"  ETV
vector 1271  CAIN.eNodeB1.sctp  "RTO 2:10.0.2.2"  ETV
vector 1246  CAIN.eNodeB1.sctp  "Slow Start Threshold 2:10.0.4.1"  ETV
vector 1247  CAIN.eNodeB1.sctp  "Congestion Window 2:10.0.4.1"  ETV
vector 1248  CAIN.eNodeB1.sctp  "Bandwidth 2:10.0.4.1"  ETV
vector 1251  CAIN.eNodeB1.sctp  "HB Sent 2:10.0.4.1"  ETV
vector 1244  CAIN.eNodeB1.sctp  "RTO 2:10.0.4.1"  ETV
vector 959  CAIN.eNodeB1.sctp  "Slow Start Threshold 2:10.0.5.1"  ETV
vector 960  CAIN.eNodeB1.sctp  "Congestion Window 2:10.0.5.1"  ETV
vector 961  CAIN.eNodeB1.sctp  "Bandwidth 2:10.0.5.1"  ETV
vector 957  CAIN.eNodeB1.sctp  "RTO 2:10.0.5.1"  ETV
vector 1173  CAIN.eNodeB.sctp  "HB ACK Received 6:10.0.5.2"  ETV
vector 1164  CAIN.eNodeB.sctp  "RTT 6:10.0.5.2"  ETV
vector 1070  CAIN.eNodeB1.sctp  "HB ACK Received 5:10.0.5.1"  ETV
vector 1061  CAIN.eNodeB1.sctp  "RTT 5:10.0.5.1"  ETV
vector 1171  CAIN.eNodeB.sctp  "HB ACK Sent 6:10.0.5.2"  ETV
vector 1172  CAIN.eNodeB.sctp  "HB Received 6:10.0.5.2"  ETV
vector 1068  CAIN.eNodeB1.sctp  "HB ACK Sent 5:10.0.5.1"  ETV
vector 1069  CAIN.eNodeB1.sctp  "HB Received 5:10.0.5.1"  ETV
vector 967  CAIN.eNodeB1.sctp  "HB ACK Received 2:10.0.5.1"  ETV
vector 958  CAIN.eNodeB1.sctp  "RTT 2:10.0.5.1"  ETV
vector 918  CAIN.eNodeB.sctp  "HB ACK Received 1:10.0.5.2"  ETV
vector 909  CAIN.eNodeB.sctp  "RTT 1:10.0.5.2"  ETV
vector 96  CAIN.eNodeB.nic.mac  receivedPacketFromLowerLayer:vector(packetBytes)  ETV
attr interpolationmode  none
attr source  receivedPacketFromLowerLayer
vector 1305  CAIN.eNodeB.sctp  "SendQueue of Association 6"  ETV
vector 1168  CAIN.eNodeB.sctp  "TSN Sent 6:10.0.5.2"  ETV
vector 1175  CAIN.eNodeB.sctp  "Outstanding Bytes 6:10.0.5.2"  ETV
vector 848  CAIN.eNodeB.sctp  "Outstanding Bytes 3:Total"  ETV
vector 1174  CAIN.eNodeB.sctp  "Queued Sent Bytes 6:10.0.5.2"  ETV
vector 847  CAIN.eNodeB.sctp  "Queued Sent Bytes 3:Total"  ETV
vector 963  CAIN.eNodeB1.sctp  "TSN Received 2:10.0.5.1"  ETV
vector 939  CAIN.eNodeB1.sctp  "Queued Received Bytes 2:Total"  ETV
vector 935  CAIN.eNodeB1.sctp  "Advertised Receiver Window 2"  ETV
vector 944  CAIN.eNodeB1.sctp  "Number of Total Gap Blocks Stored 2"  ETV
vector 945  CAIN.eNodeB1.sctp  "Number of Revokable Gap Blocks Stored 2"  ETV
vector 946  CAIN.eNodeB1.sctp  "Number of Non-Revokable Gap Blocks Stored 2"  ETV
vector 947  CAIN.eNodeB1.sctp  "Number of Duplicate TSNs Stored 2"  ETV
vector 951  CAIN.eNodeB1.sctp  "Length of SACK Sent 2"  ETV
vector 948  CAIN.eNodeB1.sctp  "Number of Revokable Gap Blocks Sent 2"  ETV
vector 949  CAIN.eNodeB1.sctp  "Number of Non-Revokable Gap Blocks Sent 2"  ETV
vector 950  CAIN.eNodeB1.sctp  "Number of Duplicate TSNs Sent 2"  ETV
vector 955  CAIN.eNodeB1.sctp  "End to End Delay of Association 2"  ETV
vector 199  CAIN.eNodeB1.x2App[0].client  rcvdPk:vector(packetBytes)  ETV
attr interpolationmode  none
attr source  rcvdPk
attr title  "packets received, vector(packetBytes)"
vector 1304  CAIN.eNodeB.sctp  "Number of Gap Blocks in Last SACK of Association 6"  ETV
vector 849  CAIN.eNodeB.sctp  "Number of Revokable Gap Blocks in SACK 3"  ETV
vector 850  CAIN.eNodeB.sctp  "Number of Non-Revokable Gap Blocks in SACK 3"  ETV
vector 1185  CAIN.eNodeB.sctp  "TSN Acked CumAck 6:10.0.5.2"  ETV
vector 1151  CAIN.eNodeB.sctp  "Number of Gap Acked Chunks in Last SACK 6:10.0.3.2"  ETV
vector 1152  CAIN.eNodeB.sctp  "Number of Non-Revokable Gap Acked Chunks in Last SACK 6:10.0.3.2"  ETV
vector 1153  CAIN.eNodeB.sctp  "Number of Gap Missed Chunks in Last SACK 6:10.0.3.2"  ETV
vector 1124  CAIN.eNodeB.sctp  "Number of Gap Acked Chunks in Last SACK 6:10.0.4.2"  ETV
vector 1125  CAIN.eNodeB.sctp  "Number of Non-Revokable Gap Acked Chunks in Last SACK 6:10.0.4.2"  ETV
vector 1126  CAIN.eNodeB.sctp  "Number of Gap Missed Chunks in Last SACK 6:10.0.4.2"  ETV
vector 1178  CAIN.eNodeB.sctp  "Number of Gap Acked Chunks in Last SACK 6:10.0.5.2"  ETV
vector 1179  CAIN.eNodeB.sctp  "Number of Non-Revokable Gap Acked Chunks in Last SACK 6:10.0.5.2"  ETV
vector 1180  CAIN.eNodeB.sctp  "Number of Gap Missed Chunks in Last SACK 6:10.0.5.2"  ETV
vector 859  CAIN.eNodeB.sctp  "Arwnd in Last SACK 3"  ETV
vector 1187  CAIN.eNodeB.sctp  "TSN PseudoCumAck 6:10.0.5.2"  ETV
vector 1188  CAIN.eNodeB.sctp  "TSN RTXPseudoCumAck 6:10.0.5.2"  ETV
vector 1181  CAIN.eNodeB.sctp  "Partial Bytes Acked 6:10.0.5.2"  ETV
vector 1333  CAIN.ueD2DTx[13].tcp  tcpRcvQueueBytes  ETV
vector 1320  CAIN.ueD2DTx[13].tcp  "advertised window"  ETV
vector 1319  CAIN.ueD2DTx[13].tcp  "receive window"  ETV
vector 1322  CAIN.ueD2DTx[13].tcp  "sent ack"  ETV
vector 621  CAIN.ueD2DTx[13].nic.pdcpRrc  receivedPacketFromUpperLayer:vector(packetBytes)  ETV
attr interpolationmode  none
attr source  receivedPacketFromUpperLayer
vector 624  CAIN.ueD2DTx[13].nic.pdcpRrc  sentPacketToLowerLayer:vector(packetBytes)  ETV
attr interpolationmode  none
attr source  sentPacketToLowerLayer
vector 625  CAIN.ueD2DTx[13].nic.mac  receivedPacketFromUpperLayer:vector(packetBytes)  ETV
attr interpolationmode  none
attr source  receivedPacketFromUpperLayer
vector 635  CAIN.ueD2DTx[13].nic.mac  CainHopMessageSent:vector  ETV
attr interpolationmode  none
attr title  "# of Sent CAIN hop message, vector"
vector 628  CAIN.ueD2DTx[13].nic.mac  sentPacketToLowerLayer:vector(packetBytes)  ETV
attr interpolationmode  none
attr source  sentPacketToLowerLayer
vector 1357  CAIN.ueD2DTx[19].tcp  tcpRcvQueueBytes  ETV
vector 1344  CAIN.ueD2DTx[19].tcp  "advertised window"  ETV
vector 1343  CAIN.ueD2DTx[19].tcp  "receive window"  ETV
vector 1346  CAIN.ueD2DTx[19].tcp  "sent ack"  ETV
vector 813  CAIN.ueD2DTx[19].nic.pdcpRrc  receivedPacketFromUpperLayer:vector(packetBytes)  ETV
attr interpolationmode  none
attr source  receivedPacketFromUpperLayer
vector 816  CAIN.ueD2DTx[19].nic.pdcpRrc  sentPacketToLowerLayer:vector(packetBytes)  ETV
attr interpolationmode  none
attr source  sentPacketToLowerLayer
vector 817  CAIN.ueD2DTx[19].nic.mac  receivedPacketFromUpperLayer:vector(packetBytes)  ETV
attr interpolationmode  none
attr source  receivedPacketFromUpperLayer
vector 1381  CAIN.ueD2DTx[12].tcp  tcpRcvQueueBytes  ETV
vector 1368  CAIN.ueD2DTx[12].tcp  "advertised window"  ETV
vector 1367  CAIN.ueD2DTx[12].tcp  "receive window"  ETV
vector 1370  CAIN.ueD2DTx[12].tcp  "sent ack"  ETV
vector 589  CAIN.ueD2DTx[12].nic.pdcpRrc  receivedPacketFromUpperLayer:vector(packetBytes)  ETV
attr interpolationmode  none
attr source  receivedPacketFromUpperLayer
vector 592  CAIN.ueD2DTx[12].nic.pdcpRrc  sentPacketToLowerLayer:vector(packetBytes)  ETV
attr interpolationmode  none
attr source  sentPacketToLowerLayer
vector 593  CAIN.ueD2DTx[12].nic.mac  receivedPacketFromUpperLayer:vector(packetBytes)  ETV
attr interpolationmode  none
attr source  receivedPacketFromUpperLayer
vector 603  CAIN.ueD2DTx[12].nic.mac  CainHopMessageSent:vector  ETV
attr interpolationmode  none
attr title  "# of Sent CAIN hop message, vector"
vector 596  CAIN.ueD2DTx[12].nic.mac  sentPacketToLowerLayer:vector(packetBytes)  ETV
attr interpolationmode  none
attr source  sentPacketToLowerLayer
vector 827  CAIN.ueD2DTx[19].nic.mac  CainHopMessageSent:vector  ETV
attr interpolationmode  none
attr title  "# of Sent CAIN hop message, vector"
vector 820  CAIN.ueD2DTx[19].nic.mac  sentPacketToLowerLayer:vector(packetBytes)  ETV
attr interpolationmode  none
attr source  sentPacketToLowerLayer
vector 242  CAIN.ueD2DTx[1].nic.mac  receivedPacketFromLowerLayer:vector(packetBytes)  ETV
attr interpolationmode  none
attr source  receivedPacketFromLowerLayer
vector 244  CAIN.ueD2DTx[1].nic.mac  sentPacketToLowerLayer:vector(packetBytes)  ETV
attr interpolationmode  none
attr source  sentPacketToLowerLayer
vector 210  CAIN.ueD2DTx[0].nic.mac  receivedPacketFromLowerLayer:vector(packetBytes)  ETV
attr interpolationmode  none
attr source  receivedPacketFromLowerLayer
vector 212  CAIN.ueD2DTx[0].nic.mac  sentPacketToLowerLayer:vector(packetBytes)  ETV
attr interpolationmode  none
attr source  sentPacketToLowerLayer
vector 111  CAIN.eNodeB.nic.mac  racpkt:vector  ETV
attr interpolationmode  none
attr title  "eNB received racpkt message, vector"
vector 112  CAIN.eNodeB.nic.mac  racDistanceSignal:vector  ETV
attr interpolationmode  none
attr title  "Rac distance to enb, vector"
vector 113  CAIN.eNodeB.nic.mac  racServedDevsSignal:vector  ETV
attr interpolationmode  none
attr title  "# of devices served on rac arriavall, vector"
vector 106  CAIN.eNodeB.nic.mac  DistanceSignal:vector  ETV
attr interpolationmode  none
attr title  "Distance to enb, vector"
vector 101  CAIN.eNodeB.nic.mac  CainHopMessage:vector  ETV
attr interpolationmode  none
attr title  "eNB received CAIN hop message, vector"
vector 98  CAIN.eNodeB.nic.mac  sentPacketToLowerLayer:vector(packetBytes)  ETV
attr interpolationmode  none
attr source  sentPacketToLowerLayer
vector 217  CAIN.ueD2DTx[0].nic.mac  DropedHopMessage:vector  ETV
attr interpolationmode  none
attr title  "Droped Hop CAIN message due to RB not available, vector"
vector 1405  CAIN.ueD2DTx[11].tcp  tcpRcvQueueBytes  ETV
vector 1392  CAIN.ueD2DTx[11].tcp  "advertised window"  ETV
vector 1391  CAIN.ueD2DTx[11].tcp  "receive window"  ETV
vector 1394  CAIN.ueD2DTx[11].tcp  "sent ack"  ETV
vector 557  CAIN.ueD2DTx[11].nic.pdcpRrc  receivedPacketFromUpperLayer:vector(packetBytes)  ETV
attr interpolationmode  none
attr source  receivedPacketFromUpperLayer
vector 560  CAIN.ueD2DTx[11].nic.pdcpRrc  sentPacketToLowerLayer:vector(packetBytes)  ETV
attr interpolationmode  none
attr source  sentPacketToLowerLayer
vector 561  CAIN.ueD2DTx[11].nic.mac  receivedPacketFromUpperLayer:vector(packetBytes)  ETV
attr interpolationmode  none
attr source  receivedPacketFromUpperLayer
vector 571  CAIN.ueD2DTx[11].nic.mac  CainHopMessageSent:vector  ETV
attr interpolationmode  none
attr title  "# of Sent CAIN hop message, vector"
vector 564  CAIN.ueD2DTx[11].nic.mac  sentPacketToLowerLayer:vector(packetBytes)  ETV
attr interpolationmode  none
attr source  sentPacketToLowerLayer
vector 1429  CAIN.ueD2DTx[7].tcp  tcpRcvQueueBytes  ETV
vector 1416  CAIN.ueD2DTx[7].tcp  "advertised window"  ETV
vector 1415  CAIN.ueD2DTx[7].tcp  "receive window"  ETV
vector 1418  CAIN.ueD2DTx[7].tcp  "sent ack"  ETV
vector 429  CAIN.ueD2DTx[7].nic.pdcpRrc  receivedPacketFromUpperLayer:vector(packetBytes)  ETV
attr interpolationmode  none
attr source  receivedPacketFromUpperLayer
vector 432  CAIN.ueD2DTx[7].nic.pdcpRrc  sentPacketToLowerLayer:vector(packetBytes)  ETV
attr interpolationmode  none
attr source  sentPacketToLowerLayer
vector 433  CAIN.ueD2DTx[7].nic.mac  receivedPacketFromUpperLayer:vector(packetBytes)  ETV
attr interpolationmode  none
attr source  receivedPacketFromUpperLayer
vector 443  CAIN.ueD2DTx[7].nic.mac  CainHopMessageSent:vector  ETV
attr interpolationmode  none
attr title  "# of Sent CAIN hop message, vector"
vector 436  CAIN.ueD2DTx[7].nic.mac  sentPacketToLowerLayer:vector(packetBytes)  ETV
attr interpolationmode  none
attr source  sentPacketToLowerLayer
vector 1453  CAIN.ueD2DTx[6].tcp  tcpRcvQueueBytes  ETV
vector 1440  CAIN.ueD2DTx[6].tcp  "advertised window"  ETV
vector 1439  CAIN.ueD2DTx[6].tcp  "receive window"  ETV
vector 1442  CAIN.ueD2DTx[6].tcp  "sent ack"  ETV
vector 397  CAIN.ueD2DTx[6].nic.pdcpRrc  receivedPacketFromUpperLayer:vector(packetBytes)  ETV
attr interpolationmode  none
attr source  receivedPacketFromUpperLayer
vector 400  CAIN.ueD2DTx[6].nic.pdcpRrc  sentPacketToLowerLayer:vector(packetBytes)  ETV
attr interpolationmode  none
attr source  sentPacketToLowerLayer
vector 401  CAIN.ueD2DTx[6].nic.mac  receivedPacketFromUpperLayer:vector(packetBytes)  ETV
attr interpolationmode  none
attr source  receivedPacketFromUpperLayer
vector 411  CAIN.ueD2DTx[6].nic.mac  CainHopMessageSent:vector  ETV
attr interpolationmode  none
attr title  "# of Sent CAIN hop message, vector"
vector 404  CAIN.ueD2DTx[6].nic.mac  sentPacketToLowerLayer:vector(packetBytes)  ETV
attr interpolationmode  none
attr source  sentPacketToLowerLayer
vector 1477  CAIN.ueD2DTx[2].tcp  tcpRcvQueueBytes  ETV
vector 1464  CAIN.ueD2DTx[2].tcp  "advertised window"  ETV
vector 1463  CAIN.ueD2DTx[2].tcp  "receive window"  ETV
vector 1466  CAIN.ueD2DTx[2].tcp  "sent ack"  ETV
vector 269  CAIN.ueD2DTx[2].nic.pdcpRrc  receivedPacketFromUpperLayer:vector(packetBytes)  ETV
attr interpolationmode  none
attr source  receivedPacketFromUpperLayer
vector 272  CAIN.ueD2DTx[2].nic.pdcpRrc  sentPacketToLowerLayer:vector(packetBytes)  ETV
attr interpolationmode  none
attr source  sentPacketToLowerLayer
vector 273  CAIN.ueD2DTx[2].nic.mac  receivedPacketFromUpperLayer:vector(packetBytes)  ETV
attr interpolationmode  none
attr source  receivedPacketFromUpperLayer
vector 282  CAIN.ueD2DTx[2].nic.mac  CainMessageSent:vector  ETV
attr interpolationmode  none
attr title  "# of Sent CAIN message, vector"
vector 276  CAIN.ueD2DTx[2].nic.mac  sentPacketToLowerLayer:vector(packetBytes)  ETV
attr interpolationmode  none
attr source  sentPacketToLowerLayer
vector 1501  CAIN.ueD2DTx[10].tcp  tcpRcvQueueBytes  ETV
vector 1488  CAIN.ueD2DTx[10].tcp  "advertised window"  ETV
vector 1487  CAIN.ueD2DTx[10].tcp  "receive window"  ETV
vector 1490  CAIN.ueD2DTx[10].tcp  "sent ack"  ETV
vector 525  CAIN.ueD2DTx[10].nic.pdcpRrc  receivedPacketFromUpperLayer:vector(packetBytes)  ETV
attr interpolationmode  none
attr source  receivedPacketFromUpperLayer
vector 528  CAIN.ueD2DTx[10].nic.pdcpRrc  sentPacketToLowerLayer:vector(packetBytes)  ETV
attr interpolationmode  none
attr source  sentPacketToLowerLayer
vector 529  CAIN.ueD2DTx[10].nic.mac  receivedPacketFromUpperLayer:vector(packetBytes)  ETV
attr interpolationmode  none
attr source  receivedPacketFromUpperLayer
vector 1525  CAIN.ueD2DTx[14].tcp  tcpRcvQueueBytes  ETV
vector 1512  CAIN.ueD2DTx[14].tcp  "advertised window"  ETV
vector 1511  CAIN.ueD2DTx[14].tcp  "receive window"  ETV
vector 1514  CAIN.ueD2DTx[14].tcp  "sent ack"  ETV
vector 653  CAIN.ueD2DTx[14].nic.pdcpRrc  receivedPacketFromUpperLayer:vector(packetBytes)  ETV
attr interpolationmode  none
attr source  receivedPacketFromUpperLayer
vector 656  CAIN.ueD2DTx[14].nic.pdcpRrc  sentPacketToLowerLayer:vector(packetBytes)  ETV
attr interpolationmode  none
attr source  sentPacketToLowerLayer
vector 657  CAIN.ueD2DTx[14].nic.mac  receivedPacketFromUpperLayer:vector(packetBytes)  ETV
attr interpolationmode  none
attr source  receivedPacketFromUpperLayer
vector 539  CAIN.ueD2DTx[10].nic.mac  CainHopMessageSent:vector  ETV
attr interpolationmode  none
attr title  "# of Sent CAIN hop message, vector"
vector 532  CAIN.ueD2DTx[10].nic.mac  sentPacketToLowerLayer:vector(packetBytes)  ETV
attr interpolationmode  none
attr source  sentPacketToLowerLayer
vector 667  CAIN.ueD2DTx[14].nic.mac  CainHopMessageSent:vector  ETV
attr interpolationmode  none
attr title  "# of Sent CAIN hop message, vector"
vector 660  CAIN.ueD2DTx[14].nic.mac  sentPacketToLowerLayer:vector(packetBytes)  ETV
attr interpolationmode  none
attr source  sentPacketToLowerLayer
vector 100  CAIN.eNodeB.nic.mac  CainMessage:vector  ETV
attr interpolationmode  none
attr title  "eNB received CAIN message, vector"
vector 216  CAIN.ueD2DTx[0].nic.mac  DropedCainMessage:vector  ETV
attr interpolationmode  none
attr title  "Droped CAIN message due to RB not available, vector"
vector 1549  CAIN.ueD2DTx[4].tcp  tcpRcvQueueBytes  ETV
vector 1536  CAIN.ueD2DTx[4].tcp  "advertised window"  ETV
vector 1535  CAIN.ueD2DTx[4].tcp  "receive window"  ETV
vector 1538  CAIN.ueD2DTx[4].tcp  "sent ack"  ETV
vector 333  CAIN.ueD2DTx[4].nic.pdcpRrc  receivedPacketFromUpperLayer:vector(packetBytes)  ETV
attr interpolationmode  none
attr source  receivedPacketFromUpperLayer
vector 336  CAIN.ueD2DTx[4].nic.pdcpRrc  sentPacketToLowerLayer:vector(packetBytes)  ETV
attr interpolationmode  none
attr source  sentPacketToLowerLayer
vector 337  CAIN.ueD2DTx[4].nic.mac  receivedPacketFromUpperLayer:vector(packetBytes)  ETV
attr interpolationmode  none
attr source  receivedPacketFromUpperLayer
vector 347  CAIN.ueD2DTx[4].nic.mac  CainHopMessageSent:vector  ETV
attr interpolationmode  none
attr title  "# of Sent CAIN hop message, vector"
vector 340  CAIN.ueD2DTx[4].nic.mac  sentPacketToLowerLayer:vector(packetBytes)  ETV
attr interpolationmode  none
attr source  sentPacketToLowerLayer
vector 1573  CAIN.ueD2DTx[8].tcp  tcpRcvQueueBytes  ETV
vector 1560  CAIN.ueD2DTx[8].tcp  "advertised window"  ETV
vector 1559  CAIN.ueD2DTx[8].tcp  "receive window"  ETV
vector 1562  CAIN.ueD2DTx[8].tcp  "sent ack"  ETV
vector 461  CAIN.ueD2DTx[8].nic.pdcpRrc  receivedPacketFromUpperLayer:vector(packetBytes)  ETV
attr interpolationmode  none
attr source  receivedPacketFromUpperLayer
vector 464  CAIN.ueD2DTx[8].nic.pdcpRrc  sentPacketToLowerLayer:vector(packetBytes)  ETV
attr interpolationmode  none
attr source  sentPacketToLowerLayer
vector 465  CAIN.ueD2DTx[8].nic.mac  receivedPacketFromUpperLayer:vector(packetBytes)  ETV
attr interpolationmode  none
attr source  receivedPacketFromUpperLayer
vector 475  CAIN.ueD2DTx[8].nic.mac  CainHopMessageSent:vector  ETV
attr interpolationmode  none
attr title  "# of Sent CAIN hop message, vector"
vector 468  CAIN.ueD2DTx[8].nic.mac  sentPacketToLowerLayer:vector(packetBytes)  ETV
attr interpolationmode  none
attr source  sentPacketToLowerLayer
vector 1597  CAIN.ueD2DTx[9].tcp  tcpRcvQueueBytes  ETV
vector 1584  CAIN.ueD2DTx[9].tcp  "advertised window"  ETV
vector 1583  CAIN.ueD2DTx[9].tcp  "receive window"  ETV
vector 1586  CAIN.ueD2DTx[9].tcp  "sent ack"  ETV
vector 493  CAIN.ueD2DTx[9].nic.pdcpRrc  receivedPacketFromUpperLayer:vector(packetBytes)  ETV
attr interpolationmode  none
attr source  receivedPacketFromUpperLayer
vector 496  CAIN.ueD2DTx[9].nic.pdcpRrc  sentPacketToLowerLayer:vector(packetBytes)  ETV
attr interpolationmode  none
attr source  sentPacketToLowerLayer
vector 497  CAIN.ueD2DTx[9].nic.mac  receivedPacketFromUpperLayer:vector(packetBytes)  ETV
attr interpolationmode  none
attr source  receivedPacketFromUpperLayer
vector 507  CAIN.ueD2DTx[9].nic.mac  CainHopMessageSent:vector  ETV
attr interpolationmode  none
attr title  "# of Sent CAIN hop message, vector"
vector 500  CAIN.ueD2DTx[9].nic.mac  sentPacketToLowerLayer:vector(packetBytes)  ETV
attr interpolationmode  none
attr source  sentPacketToLowerLayer
vector 1621  CAIN.ueD2DTx[15].tcp  tcpRcvQueueBytes  ETV
vector 1608  CAIN.ueD2DTx[15].tcp  "advertised window"  ETV
vector 1607  CAIN.ueD2DTx[15].tcp  "receive window"  ETV
vector 1610  CAIN.ueD2DTx[15].tcp  "sent ack"  ETV
vector 685  CAIN.ueD2DTx[15].nic.pdcpRrc  receivedPacketFromUpperLayer:vector(packetBytes)  ETV
attr interpolationmode  none
attr source  receivedPacketFromUpperLayer
vector 688  CAIN.ueD2DTx[15].nic.pdcpRrc  sentPacketToLowerLayer:vector(packetBytes)  ETV
attr interpolationmode  none
attr source  sentPacketToLowerLayer
vector 689  CAIN.ueD2DTx[15].nic.mac  receivedPacketFromUpperLayer:vector(packetBytes)  ETV
attr interpolationmode  none
attr source  receivedPacketFromUpperLayer
vector 699  CAIN.ueD2DTx[15].nic.mac  CainHopMessageSent:vector  ETV
attr interpolationmode  none
attr title  "# of Sent CAIN hop message, vector"
vector 692  CAIN.ueD2DTx[15].nic.mac  sentPacketToLowerLayer:vector(packetBytes)  ETV
attr interpolationmode  none
attr source  sentPacketToLowerLayer
vector 1645  CAIN.ueD2DTx[17].tcp  tcpRcvQueueBytes  ETV
vector 1632  CAIN.ueD2DTx[17].tcp  "advertised window"  ETV
vector 1631  CAIN.ueD2DTx[17].tcp  "receive window"  ETV
vector 1634  CAIN.ueD2DTx[17].tcp  "sent ack"  ETV
vector 749  CAIN.ueD2DTx[17].nic.pdcpRrc  receivedPacketFromUpperLayer:vector(packetBytes)  ETV
attr interpolationmode  none
attr source  receivedPacketFromUpperLayer
vector 752  CAIN.ueD2DTx[17].nic.pdcpRrc  sentPacketToLowerLayer:vector(packetBytes)  ETV
attr interpolationmode  none
attr source  sentPacketToLowerLayer
vector 753  CAIN.ueD2DTx[17].nic.mac  receivedPacketFromUpperLayer:vector(packetBytes)  ETV
attr interpolationmode  none
attr source  receivedPacketFromUpperLayer
vector 1669  CAIN.ueD2DTx[0].tcp  tcpRcvQueueBytes  ETV
vector 1656  CAIN.ueD2DTx[0].tcp  "advertised window"  ETV
vector 1655  CAIN.ueD2DTx[0].tcp  "receive window"  ETV
vector 1658  CAIN.ueD2DTx[0].tcp  "sent ack"  ETV
vector 205  CAIN.ueD2DTx[0].nic.pdcpRrc  receivedPacketFromUpperLayer:vector(packetBytes)  ETV
attr interpolationmode  none
attr source  receivedPacketFromUpperLayer
vector 208  CAIN.ueD2DTx[0].nic.pdcpRrc  sentPacketToLowerLayer:vector(packetBytes)  ETV
attr interpolationmode  none
attr source  sentPacketToLowerLayer
vector 209  CAIN.ueD2DTx[0].nic.mac  receivedPacketFromUpperLayer:vector(packetBytes)  ETV
attr interpolationmode  none
attr source  receivedPacketFromUpperLayer
vector 763  CAIN.ueD2DTx[17].nic.mac  CainHopMessageSent:vector  ETV
attr interpolationmode  none
attr title  "# of Sent CAIN hop message, vector"
vector 756  CAIN.ueD2DTx[17].nic.mac  sentPacketToLowerLayer:vector(packetBytes)  ETV
attr interpolationmode  none
attr source  sentPacketToLowerLayer
vector 1301  CAIN.eNodeB1.sctp  "SendQueue of Association 5"  ETV
vector 1065  CAIN.eNodeB1.sctp  "TSN Sent 5:10.0.5.1"  ETV
vector 1072  CAIN.eNodeB1.sctp  "Outstanding Bytes 5:10.0.5.1"  ETV
vector 870  CAIN.eNodeB1.sctp  "Outstanding Bytes 4:Total"  ETV
vector 1071  CAIN.eNodeB1.sctp  "Queued Sent Bytes 5:10.0.5.1"  ETV
vector 869  CAIN.eNodeB1.sctp  "Queued Sent Bytes 4:Total"  ETV
vector 108  CAIN.eNodeB.nic.mac  ServedDevs:vector  ETV
attr interpolationmode  none
attr title  "# of devices served on cain forwarding, vector"
vector 109  CAIN.eNodeB.nic.mac  ServedHopDevs:vector  ETV
attr interpolationmode  none
attr title  "# of devices served on hop forwarding, vector"
vector 914  CAIN.eNodeB.sctp  "TSN Received 1:10.0.5.2"  ETV
vector 890  CAIN.eNodeB.sctp  "Queued Received Bytes 1:Total"  ETV
vector 886  CAIN.eNodeB.sctp  "Advertised Receiver Window 1"  ETV
vector 895  CAIN.eNodeB.sctp  "Number of Total Gap Blocks Stored 1"  ETV
vector 896  CAIN.eNodeB.sctp  "Number of Revokable Gap Blocks Stored 1"  ETV
vector 897  CAIN.eNodeB.sctp  "Number of Non-Revokable Gap Blocks Stored 1"  ETV
vector 898  CAIN.eNodeB.sctp  "Number of Duplicate TSNs Stored 1"  ETV
vector 902  CAIN.eNodeB.sctp  "Length of SACK Sent 1"  ETV
vector 899  CAIN.eNodeB.sctp  "Number of Revokable Gap Blocks Sent 1"  ETV
vector 900  CAIN.eNodeB.sctp  "Number of Non-Revokable Gap Blocks Sent 1"  ETV
vector 901  CAIN.eNodeB.sctp  "Number of Duplicate TSNs Sent 1"  ETV
vector 906  CAIN.eNodeB.sctp  "End to End Delay of Association 1"  ETV
vector 141  CAIN.eNodeB.x2App[0].client  rcvdPk:vector(packetBytes)  ETV
attr interpolationmode  none
attr source  rcvdPk
attr title  "packets received, vector(packetBytes)"
vector 1300  CAIN.eNodeB1.sctp  "Number of Gap Blocks in Last SACK of Association 5"  ETV
vector 871  CAIN.eNodeB1.sctp  "Number of Revokable Gap Blocks in SACK 4"  ETV
vector 872  CAIN.eNodeB1.sctp  "Number of Non-Revokable Gap Blocks in SACK 4"  ETV
vector 1082  CAIN.eNodeB1.sctp  "TSN Acked CumAck 5:10.0.5.1"  ETV
vector 1048  CAIN.eNodeB1.sctp  "Number of Gap Acked Chunks in Last SACK 5:10.0.2.2"  ETV
vector 1049  CAIN.eNodeB1.sctp  "Number of Non-Revokable Gap Acked Chunks in Last SACK 5:10.0.2.2"  ETV
vector 1050  CAIN.eNodeB1.sctp  "Number of Gap Missed Chunks in Last SACK 5:10.0.2.2"  ETV
vector 1021  CAIN.eNodeB1.sctp  "Number of Gap Acked Chunks in Last SACK 5:10.0.4.1"  ETV
vector 1022  CAIN.eNodeB1.sctp  "Number of Non-Revokable Gap Acked Chunks in Last SACK 5:10.0.4.1"  ETV
vector 1023  CAIN.eNodeB1.sctp  "Number of Gap Missed Chunks in Last SACK 5:10.0.4.1"  ETV
vector 1075  CAIN.eNodeB1.sctp  "Number of Gap Acked Chunks in Last SACK 5:10.0.5.1"  ETV
vector 1076  CAIN.eNodeB1.sctp  "Number of Non-Revokable Gap Acked Chunks in Last SACK 5:10.0.5.1"  ETV
vector 1077  CAIN.eNodeB1.sctp  "Number of Gap Missed Chunks in Last SACK 5:10.0.5.1"  ETV
vector 881  CAIN.eNodeB1.sctp  "Arwnd in Last SACK 4"  ETV
vector 1084  CAIN.eNodeB1.sctp  "TSN PseudoCumAck 5:10.0.5.1"  ETV
vector 1085  CAIN.eNodeB1.sctp  "TSN RTXPseudoCumAck 5:10.0.5.1"  ETV
vector 1078  CAIN.eNodeB1.sctp  "Partial Bytes Acked 5:10.0.5.1"  ETV
vector 1693  CAIN.ueD2DTx[1].tcp  tcpRcvQueueBytes  ETV
vector 1680  CAIN.ueD2DTx[1].tcp  "advertised window"  ETV
vector 1679  CAIN.ueD2DTx[1].tcp  "receive window"  ETV
vector 1682  CAIN.ueD2DTx[1].tcp  "sent ack"  ETV
vector 237  CAIN.ueD2DTx[1].nic.pdcpRrc  receivedPacketFromUpperLayer:vector(packetBytes)  ETV
attr interpolationmode  none
attr source  receivedPacketFromUpperLayer
vector 240  CAIN.ueD2DTx[1].nic.pdcpRrc  sentPacketToLowerLayer:vector(packetBytes)  ETV
attr interpolationmode  none
attr source  sentPacketToLowerLayer
vector 241  CAIN.ueD2DTx[1].nic.mac  receivedPacketFromUpperLayer:vector(packetBytes)  ETV
attr interpolationmode  none
attr source  receivedPacketFromUpperLayer
vector 250  CAIN.ueD2DTx[1].nic.mac  CainMessageSent:vector  ETV
attr interpolationmode  none
attr title  "# of Sent CAIN message, vector"
vector 115  CAIN.eNodeB.nic.phy  averageCqiUlvect:vector  ETV
attr source  averageCqiUlvect
attr title  "Average Cqi reported in UL, vector"
attr unit  cqi
vector 99  CAIN.eNodeB.nic.mac  measuredItbs:vector  ETV
attr source  measuredItbs
attr title  "TBS index, vector"
attr unit  ""
vector 498  CAIN.ueD2DTx[9].nic.mac  receivedPacketFromLowerLayer:vector(packetBytes)  ETV
attr interpolationmode  none
attr source  receivedPacketFromLowerLayer
vector 818  CAIN.ueD2DTx[19].nic.mac  receivedPacketFromLowerLayer:vector(packetBytes)  ETV
attr interpolationmode  none
attr source  receivedPacketFromLowerLayer
vector 1717  CAIN.ueD2DTx[5].tcp  tcpRcvQueueBytes  ETV
vector 1704  CAIN.ueD2DTx[5].tcp  "advertised window"  ETV
vector 1703  CAIN.ueD2DTx[5].tcp  "receive window"  ETV
vector 1706  CAIN.ueD2DTx[5].tcp  "sent ack"  ETV
vector 365  CAIN.ueD2DTx[5].nic.pdcpRrc  receivedPacketFromUpperLayer:vector(packetBytes)  ETV
attr interpolationmode  none
attr source  receivedPacketFromUpperLayer
vector 368  CAIN.ueD2DTx[5].nic.pdcpRrc  sentPacketToLowerLayer:vector(packetBytes)  ETV
attr interpolationmode  none
attr source  sentPacketToLowerLayer
vector 369  CAIN.ueD2DTx[5].nic.mac  receivedPacketFromUpperLayer:vector(packetBytes)  ETV
attr interpolationmode  none
attr source  receivedPacketFromUpperLayer
vector 372  CAIN.ueD2DTx[5].nic.mac  sentPacketToLowerLayer:vector(packetBytes)  ETV
attr interpolationmode  none
attr source  sentPacketToLowerLayer
vector 154  CAIN.eNodeB1.nic.mac  receivedPacketFromLowerLayer:vector(packetBytes)  ETV
attr interpolationmode  none
attr source  receivedPacketFromLowerLayer
vector 434  CAIN.ueD2DTx[7].nic.mac  receivedPacketFromLowerLayer:vector(packetBytes)  ETV
attr interpolationmode  none
attr source  receivedPacketFromLowerLayer
vector 530  CAIN.ueD2DTx[10].nic.mac  receivedPacketFromLowerLayer:vector(packetBytes)  ETV
attr interpolationmode  none
attr source  receivedPacketFromLowerLayer
vector 211  CAIN.ueD2DTx[0].nic.mac  sentPacketToUpperLayer:vector(packetBytes)  ETV
attr interpolationmode  none
attr source  sentPacketToUpperLayer
vector 499  CAIN.ueD2DTx[9].nic.mac  sentPacketToUpperLayer:vector(packetBytes)  ETV
attr interpolationmode  none
attr source  sentPacketToUpperLayer
vector 819  CAIN.ueD2DTx[19].nic.mac  sentPacketToUpperLayer:vector(packetBytes)  ETV
attr interpolationmode  none
attr source  sentPacketToUpperLayer
vector 169  CAIN.eNodeB1.nic.mac  racpkt:vector  ETV
attr interpolationmode  none
attr title  "eNB received racpkt message, vector"
vector 170  CAIN.eNodeB1.nic.mac  racDistanceSignal:vector  ETV
attr interpolationmode  none
attr title  "Rac distance to enb, vector"
vector 171  CAIN.eNodeB1.nic.mac  racServedDevsSignal:vector  ETV
attr interpolationmode  none
attr title  "# of devices served on rac arriavall, vector"
vector 156  CAIN.eNodeB1.nic.mac  sentPacketToLowerLayer:vector(packetBytes)  ETV
attr interpolationmode  none
attr source  sentPacketToLowerLayer
vector 402  CAIN.ueD2DTx[6].nic.mac  receivedPacketFromLowerLayer:vector(packetBytes)  ETV
attr interpolationmode  none
attr source  receivedPacketFromLowerLayer
vector 435  CAIN.ueD2DTx[7].nic.mac  sentPacketToUpperLayer:vector(packetBytes)  ETV
attr interpolationmode  none
attr source  sentPacketToUpperLayer
vector 531  CAIN.ueD2DTx[10].nic.mac  sentPacketToUpperLayer:vector(packetBytes)  ETV
attr interpolationmode  none
attr source  sentPacketToUpperLayer
vector 262  CAIN.ueD2DTx[1].nic.phy  averageCqiD2Dvect:vector  ETV
attr source  averageCqiD2Dvect
attr title  "Average Cqi reported in D2D, vector"
attr unit  cqi
vector 370  CAIN.ueD2DTx[5].nic.mac  receivedPacketFromLowerLayer:vector(packetBytes)  ETV
attr interpolationmode  none
attr source  receivedPacketFromLowerLayer
vector 562  CAIN.ueD2DTx[11].nic.mac  receivedPacketFromLowerLayer:vector(packetBytes)  ETV
attr interpolationmode  none
attr source  receivedPacketFromLowerLayer
vector 1741  CAIN.ueD2DTx[3].tcp  tcpRcvQueueBytes  ETV
vector 1728  CAIN.ueD2DTx[3].tcp  "advertised window"  ETV
vector 1727  CAIN.ueD2DTx[3].tcp  "receive window"  ETV
vector 1730  CAIN.ueD2DTx[3].tcp  "sent ack"  ETV
vector 301  CAIN.ueD2DTx[3].nic.pdcpRrc  receivedPacketFromUpperLayer:vector(packetBytes)  ETV
attr interpolationmode  none
attr source  receivedPacketFromUpperLayer
vector 304  CAIN.ueD2DTx[3].nic.pdcpRrc  sentPacketToLowerLayer:vector(packetBytes)  ETV
attr interpolationmode  none
attr source  sentPacketToLowerLayer
vector 305  CAIN.ueD2DTx[3].nic.mac  receivedPacketFromUpperLayer:vector(packetBytes)  ETV
attr interpolationmode  none
attr source  receivedPacketFromUpperLayer
vector 315  CAIN.ueD2DTx[3].nic.mac  CainHopMessageSent:vector  ETV
attr interpolationmode  none
attr title  "# of Sent CAIN hop message, vector"
vector 308  CAIN.ueD2DTx[3].nic.mac  sentPacketToLowerLayer:vector(packetBytes)  ETV
attr interpolationmode  none
attr source  sentPacketToLowerLayer
vector 594  CAIN.ueD2DTx[12].nic.mac  receivedPacketFromLowerLayer:vector(packetBytes)  ETV
attr interpolationmode  none
attr source  receivedPacketFromLowerLayer
vector 563  CAIN.ueD2DTx[11].nic.mac  sentPacketToUpperLayer:vector(packetBytes)  ETV
attr interpolationmode  none
attr source  sentPacketToUpperLayer
vector 722  CAIN.ueD2DTx[16].nic.mac  receivedPacketFromLowerLayer:vector(packetBytes)  ETV
attr interpolationmode  none
attr source  receivedPacketFromLowerLayer
vector 724  CAIN.ueD2DTx[16].nic.mac  sentPacketToLowerLayer:vector(packetBytes)  ETV
attr interpolationmode  none
attr source  sentPacketToLowerLayer
vector 754  CAIN.ueD2DTx[17].nic.mac  receivedPacketFromLowerLayer:vector(packetBytes)  ETV
attr interpolationmode  none
attr source  receivedPacketFromLowerLayer
vector 243  CAIN.ueD2DTx[1].nic.mac  sentPacketToUpperLayer:vector(packetBytes)  ETV
attr interpolationmode  none
attr source  sentPacketToUpperLayer
vector 238  CAIN.ueD2DTx[1].nic.pdcpRrc  receivedPacketFromLowerLayer:vector(packetBytes)  ETV
attr interpolationmode  none
attr source  receivedPacketFromLowerLayer
vector 239  CAIN.ueD2DTx[1].nic.pdcpRrc  sentPacketToUpperLayer:vector(packetBytes)  ETV
attr interpolationmode  none
attr source  sentPacketToUpperLayer
vector 786  CAIN.ueD2DTx[18].nic.mac  receivedPacketFromLowerLayer:vector(packetBytes)  ETV
attr interpolationmode  none
attr source  receivedPacketFromLowerLayer
vector 788  CAIN.ueD2DTx[18].nic.mac  sentPacketToLowerLayer:vector(packetBytes)  ETV
attr interpolationmode  none
attr source  sentPacketToLowerLayer
vector 251  CAIN.ueD2DTx[1].nic.mac  CainHopMessageSent:vector  ETV
attr interpolationmode  none
attr title  "# of Sent CAIN hop message, vector"
vector 283  CAIN.ueD2DTx[2].nic.mac  CainHopMessageSent:vector  ETV
attr interpolationmode  none
attr title  "# of Sent CAIN hop message, vector"
vector 97  CAIN.eNodeB.nic.mac  sentPacketToUpperLayer:vector(packetBytes)  ETV
attr interpolationmode  none
attr source  sentPacketToUpperLayer
vector 92  CAIN.eNodeB.nic.pdcpRrc  receivedPacketFromLowerLayer:vector(packetBytes)  ETV
attr interpolationmode  none
attr source  receivedPacketFromLowerLayer
vector 93  CAIN.eNodeB.nic.pdcpRrc  sentPacketToUpperLayer:vector(packetBytes)  ETV
attr interpolationmode  none
attr source  sentPacketToUpperLayer
vector 91  CAIN.eNodeB.nic.pdcpRrc  receivedPacketFromUpperLayer:vector(packetBytes)  ETV
attr interpolationmode  none
attr source  receivedPacketFromUpperLayer
vector 94  CAIN.eNodeB.nic.pdcpRrc  sentPacketToLowerLayer:vector(packetBytes)  ETV
attr interpolationmode  none
attr source  sentPacketToLowerLayer
vector 95  CAIN.eNodeB.nic.mac  receivedPacketFromUpperLayer:vector(packetBytes)  ETV
attr interpolationmode  none
attr source  receivedPacketFromUpperLayer
vector 228  CAIN.ueD2DTx[0].nic.phy  averageCqiDlvect:vector  ETV
attr source  averageCqiDlvect
attr title  "Average Cqi reported in DL, vector"
attr unit  cqi
vector 1765  CAIN.ueD2DTx[16].tcp  tcpRcvQueueBytes  ETV
vector 1752  CAIN.ueD2DTx[16].tcp  "advertised window"  ETV
vector 1751  CAIN.ueD2DTx[16].tcp  "receive window"  ETV
vector 1754  CAIN.ueD2DTx[16].tcp  "sent ack"  ETV
vector 717  CAIN.ueD2DTx[16].nic.pdcpRrc  receivedPacketFromUpperLayer:vector(packetBytes)  ETV
attr interpolationmode  none
attr source  receivedPacketFromUpperLayer
vector 720  CAIN.ueD2DTx[16].nic.pdcpRrc  sentPacketToLowerLayer:vector(packetBytes)  ETV
attr interpolationmode  none
attr source  sentPacketToLowerLayer
vector 721  CAIN.ueD2DTx[16].nic.mac  receivedPacketFromUpperLayer:vector(packetBytes)  ETV
attr interpolationmode  none
attr source  receivedPacketFromUpperLayer
vector 206  CAIN.ueD2DTx[0].nic.pdcpRrc  receivedPacketFromLowerLayer:vector(packetBytes)  ETV
attr interpolationmode  none
attr source  receivedPacketFromLowerLayer
vector 207  CAIN.ueD2DTx[0].nic.pdcpRrc  sentPacketToUpperLayer:vector(packetBytes)  ETV
attr interpolationmode  none
attr source  sentPacketToUpperLayer
vector 1789  CAIN.ueD2DTx[18].tcp  tcpRcvQueueBytes  ETV
vector 1776  CAIN.ueD2DTx[18].tcp  "advertised window"  ETV
vector 1775  CAIN.ueD2DTx[18].tcp  "receive window"  ETV
vector 1778  CAIN.ueD2DTx[18].tcp  "sent ack"  ETV
vector 781  CAIN.ueD2DTx[18].nic.pdcpRrc  receivedPacketFromUpperLayer:vector(packetBytes)  ETV
attr interpolationmode  none
attr source  receivedPacketFromUpperLayer
vector 784  CAIN.ueD2DTx[18].nic.pdcpRrc  sentPacketToLowerLayer:vector(packetBytes)  ETV
attr interpolationmode  none
attr source  sentPacketToLowerLayer
vector 785  CAIN.ueD2DTx[18].nic.mac  receivedPacketFromUpperLayer:vector(packetBytes)  ETV
attr interpolationmode  none
attr source  receivedPacketFromUpperLayer
vector 602  CAIN.ueD2DTx[12].nic.mac  CainMessageSent:vector  ETV
attr interpolationmode  none
attr title  "# of Sent CAIN message, vector"
vector 626  CAIN.ueD2DTx[13].nic.mac  receivedPacketFromLowerLayer:vector(packetBytes)  ETV
attr interpolationmode  none
attr source  receivedPacketFromLowerLayer
vector 173  CAIN.eNodeB1.nic.phy  averageCqiUlvect:vector  ETV
attr source  averageCqiUlvect
attr title  "Average Cqi reported in UL, vector"
attr unit  cqi
8	0	0	0
9	0	0	0
24	0	0	0
25	0	0	0
35	0	0	0
36	0	0	0
56	0	0	0
57	0	0	0
67	0	0	0
68	0	0	0
78	0	0	0
79	0	0	0
91	4983	0.073	44
91	5035	0.074	44
91	5639	0.082	44
91	5747	0.084	44
91	6069	0.089	44
92	4978	0.073	45
92	5028	0.074	45
92	5634	0.082	45
92	5742	0.084	45
92	6064	0.089	45
93	4978	0.073	44
93	5028	0.074	44
93	5634	0.082	44
93	5742	0.084	44
93	6064	0.089	44
94	4983	0.073	45
94	5035	0.074	45
94	5639	0.082	45
94	5747	0.084	45
94	6069	0.089	45
95	4986	0.073	45
95	5031	0.074	47
95	5038	0.074	45
95	5183	0.075	47
95	5642	0.082	45
95	5683	0.083	47
95	5750	0.084	45
95	5814	0.085	47
95	6072	0.089	45
95	6139	0.09	47
96	378	0.002	0
96	381	0.002	0
96	384	0.002	0
96	387	0.002	0
96	390	0.002	0
96	393	0.002	0
96	396	0.002	0
96	399	0.002	0
96	402	0.002	0
96	405	0.002	0
96	408	0.002	0
96	411	0.002	0
96	414	0.002	0
96	417	0.002	0
96	420	0.002	0
96	423	0.002	0
96	426	0.002	0
96	429	0.002	0
96	432	0.002	0
96	435	0.002	0
96	723	0.008	0
96	726	0.008	0
96	729	0.008	0
96	732	0.008	0
96	735	0.008	0
96	738	0.008	0
96	741	0.008	0
96	744	0.008	0
96	747	0.008	0
96	750	0.008	0
96	994	0.014	0
96	997	0.014	0
96	1000	0.014	0
96	1003	0.014	0
96	1006	0.014	0
96	1009	0.014	0
96	1012	0.014	0
96	1015	0.014	0
96	1018	0.014	0
96	1021	0.014	0
96	1090	0.016	0
96	1117	0.017	0
96	1120	0.017	0
96	1277	0.02	0
96	1280	0.02	0
96	1283	0.02	0
96	1286	0.02	0
96	1289	0.02	0
96	1292	0.02	0
96	1295	0.02	0
96	1298	0.02	0
96	1301	0.02	0
96	1304	0.02	0
96	1346	0.021	0
96	1382	0.022	0
96	1385	0.022	0
96	1566	0.025	0
96	1602	0.026	0
96	1605	0.026	0
96	1608	0.026	0
96	1611	0.026	0
96	1614	0.026	0
96	1617	0.026	0
96	1620	0.026	0
96	1623	0.026	0
96	1626	0.026	0
96	1629	0.026	0
96	1641	0.026	0
96	1677	0.027	0
96	1680	0.027	0
96	1716	0.028	0
96	1755	0.029	0
96	1814	0.03	0
96	1903	0.031	0
96	1933	0.032	0
96	1936	0.032	0
96	1939	0.032	0
96	1942	0.032	0
96	1945	0.032	0
96	1948	0.032	0
96	1951	0.032	0
96	1954	0.032	0
96	1957	0.032	0
96	1960	0.032	0
96	1969	0.032	0
96	1972	0.032	0
96	2017	0.033	0
96	2059	0.034	0
96	2113	0.035	0
96	2119	0.035	0
96	2186	0.036	0
96	2278	0.037	0
96	2281	0.037	0
96	2321	0.038	0
96	2324	0.038	0
96	2327	0.038	0
96	2330	0.038	0
96	2333	0.038	0
96	2336	0.038	0
96	2339	0.038	0
96	2342	0.038	0
96	2345	0.038	0
96	2348	0.038	0
96	2357	0.038	0
96	2360	0.038	0
96	2363	0.038	0
96	2408	0.039	0
96	2450	0.04	0
96	2459	0.04	0
96	2506	0.041	0
96	2509	0.041	0
96	2571	0.042	0
96	2574	0.042	0
96	2664	0.043	0
96	2667	0.043	0
96	2670	0.043	0
96	2703	0.044	0
96	2706	0.044	0
96	2709	0.044	0
96	2712	0.044	0
96	2715	0.044	0
96	2718	0.044	0
96	2721	0.044	0
96	2724	0.044	0
96	2727	0.044	0
96	2730	0.044	0
96	2745	0.044	0
96	2787	0.045	0
96	2796	0.045	0
96	2843	0.046	0
96	2846	0.046	0
96	2888	0.047	0
96	2891	0.047	0
96	2960	0.048	0
96	2963	0.048	0
96	2966	0.048	0
96	3073	0.049	0
96	3109	0.05	0
96	3112	0.05	0
96	3115	0.05	0
96	3118	0.05	0
96	3121	0.05	0
96	3124	0.05	0
96	3127	0.05	0
96	3130	0.05	0
96	3133	0.05	0
96	3136	0.05	0
96	3148	0.05	0
96	3160	0.05	0
96	3210	0.051	0
96	3213	0.051	0
96	3216	0.051	0
96	3267	0.052	0
96	3270	0.052	0
96	3273	0.052	0
96	3337	0.053	0
96	3340	0.053	0
96	3343	0.053	0
96	3399	0.054	0
96	3423	0.054	0
96	3521	0.055	0
96	3536	0.055	0
96	3539	0.055	0
96	3569	0.056	0
96	3572	0.056	0
96	3575	0.056	0
96	3578	0.056	0
96	3581	0.056	0
96	3584	0.056	0
96	3587	0.056	0
96	3590	0.056	0
96	3593	0.056	0
96	3596	0.056	0
96	3622	0.056	0
96	3625	0.056	0
96	3628	0.056	0
96	3631	0.056	0
96	3722	0.057	0
96	3725	0.057	0
96	3728	0.057	0
96	3731	0.057	0
96	3745	0.057	0
96	3747	0.057	0
96	3856	0.058	0
96	3861	0.058	0
96	3864	0.058	0
96	3867	0.058	0
96	3879	0.058	0
96	3881	0.058	0
96	3883	0.058	0
96	3885	0.058	0
96	3913	0.059	0
96	3928	0.059	0
96	3940	0.059	0
96	3942	0.059	0
96	3944	0.059	0
96	3993	0.06	0
96	3996	0.06	0
96	4001	0.06	0
96	4004	0.06	0
96	4010	0.06	0
96	4016	0.06	0
96	4018	0.06	0
96	4020	0.06	0
96	4073	0.061	0
96	4076	0.061	0
96	4089	0.061	0
96	4095	0.061	0
96	4135	0.062	0
96	4138	0.062	0
96	4141	0.062	0
96	4150	0.062	0
96	4153	0.062	0
96	4156	0.062	0
96	4159	0.062	0
96	4162	0.062	0
96	4165	0.062	0
96	4182	0.062	0
96	4193	0.062	0
96	4200	0.062	0
96	4202	0.062	0
96	4207	0.062	0
96	4301	0.063	0
96	4304	0.063	0
96	4308	0.063	0
96	4360	0.064	0
96	4362	0.064	0
96	4411	0.065	0
96	4413	0.065	0
96	4415	0.065	0
96	4418	0.065	0
96	4498	0.066	0
96	4564	0.067	0
96	4577	0.067	0
96	4579	0.067	0
96	4616	0.068	0
96	4619	0.068	0
96	4622	0.068	0
96	4631	0.068	0
96	4634	0.068	0
96	4637	0.068	0
96	4640	0.068	0
96	4643	0.068	0
96	4646	0.068	0
96	4663	0.068	0
96	4685	0.068	0
96	4829	0.07	0
96	4831	0.07	0
96	4887	0.071	0
96	4889	0.071	0
96	4947	0.072	0
96	4949	0.072	0
96	5014	0.073	0
96	5019	0.073	0
96	5064	0.074	0
96	5067	0.074	0
96	5070	0.074	0
96	5079	0.074	0
96	5082	0.074	0
96	5085	0.074	0
96	5088	0.074	0
96	5091	0.074	0
96	5094	0.074	0
96	5111	0.074	0
96	5127	0.074	0
96	5215	0.075	0
96	5218	0.075	0
96	5227	0.075	0
96	5279	0.076	0
96	5282	0.076	0
96	5320	0.077	0
96	5322	0.077	0
96	5384	0.078	0
96	5391	0.078	0
96	5446	0.079	0
96	5457	0.079	0
96	5459	0.079	0
96	5488	0.08	0
96	5491	0.08	0
96	5494	0.08	0
96	5503	0.08	0
96	5506	0.08	0
96	5509	0.08	0
96	5512	0.08	0
96	5515	0.08	0
96	5518	0.08	0
96	5535	0.08	0
96	5538	0.08	0
96	5540	0.08	0
96	5543	0.08	0
96	5618	0.081	0
96	5626	0.081	0
96	5629	0.081	0
96	5672	0.082	0
96	5674	0.082	0
96	5717	0.083	0
96	5788	0.084	0
96	5844	0.085	0
96	5847	0.085	0
96	5881	0.086	0
96	5884	0.086	0
96	5887	0.086	0
96	5896	0.086	0
96	5899	0.086	0
96	5902	0.086	0
96	5905	0.086	0
96	5908	0.086	0
96	5911	0.086	0
96	5928	0.086	0
96	5933	0.086	0
96	5941	0.086	0
96	5944	0.086	0
96	6020	0.087	0
96	6022	0.087	0
96	6054	0.088	0
96	6059	0.088	0
96	6113	0.089	0
96	6167	0.09	0
96	6169	0.09	0
96	6172	0.09	0
96	6234	0.091	0
96	6237	0.091	0
96	6272	0.092	0
96	6275	0.092	0
96	6278	0.092	0
96	6287	0.092	0
96	6290	0.092	0
96	6293	0.092	0
96	6296	0.092	0
96	6299	0.092	0
96	6302	0.092	0
96	6319	0.092	0
96	6325	0.092	0
96	6327	0.092	0
96	6405	0.093	0
96	6449	0.094	0
96	6476	0.095	0
96	6478	0.095	0
96	6481	0.095	0
96	6541	0.096	0
96	6544	0.096	0
96	6593	0.097	0
96	6595	0.097	0
96	6627	0.098	0
96	6630	0.098	0
96	6633	0.098	0
96	6642	0.098	0
96	6645	0.098	0
96	6648	0.098	0
96	6651	0.098	0
96	6654	0.098	0
96	6657	0.098	0
96	6674	0.098	0
96	6680	0.098	0
96	6755	0.099	0
96	6782	0.1	0
96	6785	0.1	0
96	6825	0.101	0
96	6828	0.101	0
96	6877	0.102	0
96	6879	0.102	0
96	6934	0.103	0
96	6960	0.104	0
96	6963	0.104	0
96	6966	0.104	0
96	6975	0.104	0
96	6978	0.104	0
96	6981	0.104	0
96	6984	0.104	0
96	6987	0.104	0
96	6990	0.104	0
96	7007	0.104	0
96	7019	0.104	0
96	7086	0.105	0
96	7089	0.105	0
96	7129	0.106	0
96	7132	0.106	0
96	7161	0.107	0
96	7163	0.107	0
96	7218	0.108	0
96	7273	0.109	0
96	7300	0.11	0
96	7303	0.11	0
96	7306	0.11	0
96	7315	0.11	0
96	7318	0.11	0
96	7321	0.11	0
96	7324	0.11	0
96	7327	0.11	0
96	7330	0.11	0
96	7347	0.11	0
96	7350	0.11	0
96	7353	0.11	0
96	7393	0.111	0
96	7396	0.111	0
96	7425	0.112	0
96	7427	0.112	0
96	7462	0.113	0
96	7517	0.114	0
96	7564	0.115	0
96	7567	0.115	0
96	7601	0.116	0
96	7604	0.116	0
96	7607	0.116	0
96	7616	0.116	0
96	7619	0.116	0
96	7622	0.116	0
96	7625	0.116	0
96	7628	0.116	0
96	7631	0.116	0
96	7648	0.116	0
96	7657	0.116	0
96	7660	0.116	0
96	7689	0.117	0
96	7691	0.117	0
96	7726	0.118	0
96	7761	0.119	0
96	7808	0.12	0
96	7811	0.12	0
96	7871	0.121	0
96	7874	0.121	0
96	7900	0.122	0
96	7903	0.122	0
96	7906	0.122	0
96	7915	0.122	0
96	7918	0.122	0
96	7921	0.122	0
96	7924	0.122	0
96	7927	0.122	0
96	7930	0.122	0
96	7947	0.122	0
96	7953	0.122	0
96	7955	0.122	0
96	7990	0.123	0
96	8025	0.124	0
96	8052	0.125	0
96	8055	0.125	0
96	8115	0.126	0
96	8118	0.126	0
96	8167	0.127	0
96	8169	0.127	0
96	8201	0.128	0
96	8204	0.128	0
96	8207	0.128	0
96	8216	0.128	0
96	8219	0.128	0
96	8222	0.128	0
96	8225	0.128	0
96	8228	0.128	0
96	8231	0.128	0
96	8248	0.128	0
96	8254	0.128	0
96	8289	0.129	0
96	8316	0.13	0
96	8319	0.13	0
96	8359	0.131	0
96	8362	0.131	0
96	8411	0.132	0
96	8413	0.132	0
96	8468	0.133	0
96	8494	0.134	0
96	8497	0.134	0
96	8500	0.134	0
96	8509	0.134	0
96	8512	0.134	0
96	8515	0.134	0
96	8518	0.134	0
96	8521	0.134	0
96	8524	0.134	0
96	8541	0.134	0
96	8553	0.134	0
96	8580	0.135	0
96	8583	0.135	0
96	8623	0.136	0
96	8626	0.136	0
96	8655	0.137	0
96	8657	0.137	0
96	8712	0.138	0
96	8767	0.139	0
96	8794	0.14	0
96	8797	0.14	0
96	8800	0.14	0
96	8809	0.14	0
96	8812	0.14	0
96	8815	0.14	0
96	8818	0.14	0
96	8821	0.14	0
96	8824	0.14	0
96	8841	0.14	0
96	8844	0.14	0
96	8847	0.14	0
96	8887	0.141	0
96	8890	0.141	0
96	8919	0.142	0
96	8921	0.142	0
96	8956	0.143	0
96	9011	0.144	0
96	9058	0.145	0
96	9061	0.145	0
96	9095	0.146	0
96	9098	0.146	0
96	9101	0.146	0
96	9110	0.146	0
96	9113	0.146	0
96	9116	0.146	0
96	9119	0.146	0
96	9122	0.146	0
96	9125	0.146	0
96	9142	0.146	0
96	9151	0.146	0
96	9154	0.146	0
96	9183	0.147	0
96	9185	0.147	0
96	9220	0.148	0
96	9255	0.149	0
96	9302	0.15	0
96	9305	0.15	0
96	9365	0.151	0
96	9368	0.151	0
96	9394	0.152	0
96	9397	0.152	0
96	9400	0.152	0
96	9409	0.152	0
96	9412	0.152	0
96	9415	0.152	0
96	9418	0.152	0
96	9421	0.152	0
96	9424	0.152	0
96	9441	0.152	0
96	9447	0.152	0
96	9449	0.152	0
96	9484	0.153	0
96	9519	0.154	0
96	9546	0.155	0
96	9549	0.155	0
96	9609	0.156	0
96	9612	0.156	0
96	9661	0.157	0
96	9663	0.157	0
96	9695	0.158	0
96	9698	0.158	0
96	9701	0.158	0
96	9710	0.158	0
96	9713	0.158	0
96	9716	0.158	0
96	9719	0.158	0
96	9722	0.158	0
96	9725	0.158	0
96	9742	0.158	0
96	9748	0.158	0
96	9783	0.159	0
96	9810	0.16	0
96	9813	0.16	0
96	9853	0.161	0
96	9856	0.161	0
96	9905	0.162	0
96	9907	0.162	0
96	9962	0.163	0
96	9988	0.164	0
96	9991	0.164	0
96	9994	0.164	0
96	10003	0.164	0
96	10006	0.164	0
96	10009	0.164	0
96	10012	0.164	0
96	10015	0.164	0
96	10018	0.164	0
96	10035	0.164	0
96	10047	0.164	0
96	10074	0.165	0
96	10077	0.165	0
96	10117	0.166	0
96	10120	0.166	0
96	10149	0.167	0
96	10151	0.167	0
96	10206	0.168	0
96	10261	0.169	0
96	10288	0.17	0
96	10291	0.17	0
96	10294	0.17	0
96	10303	0.17	0
96	10306	0.17	0
96	10309	0.17	0
96	10312	0.17	0
96	10315	0.17	0
96	10318	0.17	0
96	10335	0.17	0
96	10338	0.17	0
96	10341	0.17	0
96	10381	0.171	0
96	10384	0.171	0
96	10413	0.172	0
96	10415	0.172	0
96	10450	0.173	0
96	10505	0.174	0
96	10552	0.175	0
96	10555	0.175	0
96	10589	0.176	0
96	10592	0.176	0
96	10595	0.176	0
96	10604	0.176	0
96	10607	0.176	0
96	10610	0.176	0
96	10613	0.176	0
96	10616	0.176	0
96	10619	0.176	0
96	10636	0.176	0
96	10645	0.176	0
96	10648	0.176	0
96	10677	0.177	0
96	10679	0.177	0
96	10714	0.178	0
96	10749	0.179	0
96	10796	0.18	0
96	10799	0.18	0
96	10859	0.181	0
96	10862	0.181	0
96	10888	0.182	0
96	10891	0.182	0
96	10894	0.182	0
96	10903	0.182	0
96	10906	0.182	0
96	10909	0.182	0
96	10912	0.182	0
96	10915	0.182	0
96	10918	0.182	0
96	10935	0.182	0
96	10941	0.182	0
96	10943	0.182	0
96	10978	0.183	0
96	11013	0.184	0
96	11040	0.185	0
96	11043	0.185	0
96	11103	0.186	0
96	11106	0.186	0
96	11155	0.187	0
96	11157	0.187	0
96	11189	0.188	0
96	11192	0.188	0
96	11195	0.188	0
96	11204	0.188	0
96	11207	0.188	0
96	11210	0.188	0
96	11213	0.188	0
96	11216	0.188	0
96	11219	0.188	0
96	11236	0.188	0
96	11242	0.188	0
96	11277	0.189	0
96	11304	0.19	0
96	11307	0.19	0
96	11347	0.191	0
96	11350	0.191	0
96	11399	0.192	0
96	11401	0.192	0
96	11456	0.193	0
96	11482	0.194	0
96	11485	0.194	0
96	11488	0.194	0
96	11497	0.194	0
96	11500	0.194	0
96	11503	0.194	0
96	11506	0.194	0
96	11509	0.194	0
96	11512	0.194	0
96	11529	0.194	0
96	11541	0.194	0
96	11568	0.195	0
96	11571	0.195	0
96	11611	0.196	0
96	11614	0.196	0
96	11643	0.197	0
96	11645	0.197	0
96	11700	0.198	0
96	11755	0.199	0
96	11782	0.2	0
96	11785	0.2	0
96	11788	0.2	0
96	11797	0.2	0
96	11800	0.2	0
96	11803	0.2	0
96	11806	0.2	0
96	11809	0.2	0
96	11812	0.2	0
96	11829	0.2	0
96	11832	0.2	0
96	11835	0.2	0
96	11875	0.201	0
96	11878	0.201	0
96	11907	0.202	0
96	11909	0.202	0
96	11944	0.203	0
96	11999	0.204	0
96	12046	0.205	0
96	12049	0.205	0
96	12083	0.206	0
96	12086	0.206	0
96	12089	0.206	0
96	12098	0.206	0
96	12101	0.206	0
96	12104	0.206	0
96	12107	0.206	0
96	12110	0.206	0
96	12113	0.206	0
96	12130	0.206	0
96	12139	0.206	0
96	12142	0.206	0
96	12171	0.207	0
96	12173	0.207	0
96	12623	0.208	0
96	12658	0.209	0
96	12705	0.21	0
96	12708	0.21	0
96	12768	0.211	0
96	12771	0.211	0
96	12797	0.212	0
96	12800	0.212	0
96	12803	0.212	0
96	12812	0.212	0
96	12815	0.212	0
96	12818	0.212	0
96	12821	0.212	0
96	12824	0.212	0
96	12827	0.212	0
96	12844	0.212	0
96	12850	0.212	0
96	12852	0.212	0
96	12887	0.213	0
96	12922	0.214	0
96	12949	0.215	0
96	12952	0.215	0
96	13012	0.216	0
96	13015	0.216	0
96	13064	0.217	0
96	13066	0.217	0
96	13098	0.218	0
96	13101	0.218	0
96	13104	0.218	0
96	13113	0.218	0
96	13116	0.218	0
96	13119	0.218	0
96	13122	0.218	0
96	13125	0.218	0
96	13128	0.218	0
96	13145	0.218	0
96	13151	0.218	0
96	13186	0.219	0
96	13213	0.22	0
96	13216	0.22	0
96	13256	0.221	0
96	13259	0.221	0
96	13308	0.222	0
96	13310	0.222	0
96	13365	0.223	0
96	13391	0.224	0
96	13394	0.224	0
96	13397	0.224	0
96	13406	0.224	0
96	13409	0.224	0
96	13412	0.224	0
96	13415	0.224	0
96	13418	0.224	0
96	13421	0.224	0
96	13438	0.224	0
96	13450	0.224	0
96	13477	0.225	0
96	13480	0.225	0
96	13520	0.226	0
96	13523	0.226	0
96	13552	0.227	0
96	13554	0.227	0
96	13609	0.228	0
96	13664	0.229	0
96	13691	0.23	0
96	13694	0.23	0
96	13697	0.23	0
96	13706	0.23	0
96	13709	0.23	0
96	13712	0.23	0
96	13715	0.23	0
96	13718	0.23	0
96	13721	0.23	0
96	13738	0.23	0
96	13741	0.23	0
96	13744	0.23	0
96	13784	0.231	0
96	13787	0.231	0
96	13816	0.232	0
96	13818	0.232	0
96	13853	0.233	0
96	13908	0.234	0
96	13955	0.235	0
96	13958	0.235	0
96	13992	0.236	0
96	13995	0.236	0
96	13998	0.236	0
96	14007	0.236	0
96	14010	0.236	0
96	14013	0.236	0
96	14016	0.236	0
96	14019	0.236	0
96	14022	0.236	0
96	14039	0.236	0
96	14048	0.236	0
96	14051	0.236	0
96	14080	0.237	0
96	14082	0.237	0
96	14117	0.238	0
96	14152	0.239	0
96	14199	0.24	0
96	14202	0.24	0
96	14262	0.241	0
96	14265	0.241	0
96	14291	0.242	0
96	14294	0.242	0
96	14297	0.242	0
96	14306	0.242	0
96	14309	0.242	0
96	14312	0.242	0
96	14315	0.242	0
96	14318	0.242	0
96	14321	0.242	0
96	14338	0.242	0
96	14344	0.242	0
96	14346	0.242	0
96	14381	0.243	0
96	14416	0.244	0
96	14443	0.245	0
96	14446	0.245	0
96	14506	0.246	0
96	14509	0.246	0
96	14558	0.247	0
96	14560	0.247	0
96	14592	0.248	0
96	14595	0.248	0
96	14598	0.248	0
96	14607	0.248	0
96	14610	0.248	0
96	14613	0.248	0
96	14616	0.248	0
96	14619	0.248	0
96	14622	0.248	0
96	14639	0.248	0
96	14645	0.248	0
96	14680	0.249	0
96	14707	0.25	0
96	14710	0.25	0
96	14750	0.251	0
96	14753	0.251	0
96	14802	0.252	0
96	14804	0.252	0
96	14859	0.253	0
96	14885	0.254	0
96	14888	0.254	0
96	14891	0.254	0
96	14900	0.254	0
96	14903	0.254	0
96	14906	0.254	0
96	14909	0.254	0
96	14912	0.254	0
96	14915	0.254	0
96	14932	0.254	0
96	14944	0.254	0
96	14971	0.255	0
96	14974	0.255	0
96	15014	0.256	0
96	15017	0.256	0
96	15046	0.257	0
96	15048	0.257	0
96	15518	0.258	0
96	15573	0.259	0
96	15600	0.26	0
96	15603	0.26	0
96	15606	0.26	0
96	15615	0.26	0
96	15618	0.26	0
96	15621	0.26	0
96	15624	0.26	0
96	15627	0.26	0
96	15630	0.26	0
96	15647	0.26	0
96	15650	0.26	0
96	15653	0.26	0
96	15693	0.261	0
96	15696	0.261	0
96	15725	0.262	0
96	15727	0.262	0
96	15762	0.263	0
96	15817	0.264	0
96	15864	0.265	0
96	15867	0.265	0
96	15901	0.266	0
96	15904	0.266	0
96	15907	0.266	0
96	15916	0.266	0
96	15919	0.266	0
96	15922	0.266	0
96	15925	0.266	0
96	15928	0.266	0
96	15931	0.266	0
96	15948	0.266	0
96	15957	0.266	0
96	15960	0.266	0
96	15989	0.267	0
96	15991	0.267	0
96	16026	0.268	0
96	16061	0.269	0
96	16108	0.27	0
96	16111	0.27	0
96	16171	0.271	0
96	16174	0.271	0
96	16200	0.272	0
96	16203	0.272	0
96	16206	0.272	0
96	16215	0.272	0
96	16218	0.272	0
96	16221	0.272	0
96	16224	0.272	0
96	16227	0.272	0
96	16230	0.272	0
96	16247	0.272	0
96	16253	0.272	0
96	16255	0.272	0
96	16290	0.273	0
96	16325	0.274	0
96	16352	0.275	0
96	16355	0.275	0
96	16415	0.276	0
96	16418	0.276	0
96	16467	0.277	0
96	16469	0.277	0
96	16501	0.278	0
96	16504	0.278	0
96	16507	0.278	0
96	16516	0.278	0
96	16519	0.278	0
96	16522	0.278	0
96	16525	0.278	0
96	16528	0.278	0
96	16531	0.278	0
96	16548	0.278	0
96	16554	0.278	0
96	16589	0.279	0
96	16616	0.28	0
96	16619	0.28	0
96	16659	0.281	0
96	16662	0.281	0
96	16711	0.282	0
96	16713	0.282	0
96	16768	0.283	0
96	16794	0.284	0
96	16797	0.284	0
96	16800	0.284	0
96	16809	0.284	0
96	16812	0.284	0
96	16815	0.284	0
96	16818	0.284	0
96	16821	0.284	0
96	16824	0.284	0
96	16841	0.284	0
96	16853	0.284	0
96	16880	0.285	0
96	16883	0.285	0
96	16923	0.286	0
96	16926	0.286	0
96	16955	0.287	0
96	16957	0.287	0
96	17012	0.288	0
96	17067	0.289	0
96	17094	0.29	0
96	17097	0.29	0
96	17100	0.29	0
96	17109	0.29	0
96	17112	0.29	0
96	17115	0.29	0
96	17118	0.29	0
96	17121	0.29	0
96	17124	0.29	0
96	17141	0.29	0
96	17144	0.29	0
96	17147	0.29	0
96	17187	0.291	0
96	17190	0.291	0
96	17219	0.292	0
96	17221	0.292	0
96	17256	0.293	0
96	17311	0.294	0
96	17358	0.295	0
96	17361	0.295	0
96	17395	0.296	0
96	17398	0.296	0
96	17401	0.296	0
96	17410	0.296	0
96	17413	0.296	0
96	17416	0.296	0
96	17419	0.296	0
96	17422	0.296	0
96	17425	0.296	0
96	17442	0.296	0
96	17451	0.296	0
96	17454	0.296	0
96	17483	0.297	0
96	17485	0.297	0
96	17520	0.298	0
96	17555	0.299	0
96	17602	0.3	0
96	17605	0.3	0
96	17665	0.301	0
96	17668	0.301	0
96	17694	0.302	0
96	17697	0.302	0
96	17700	0.302	0
96	17709	0.302	0
96	17712	0.302	0
96	17715	0.302	0
96	17718	0.302	0
96	17721	0.302	0
96	17724	0.302	0
96	17741	0.302	0
96	17747	0.302	0
96	17749	0.302	0
96	17784	0.303	0
96	17819	0.304	0
96	17846	0.305	0
96	17849	0.305	0
96	17909	0.306	0
96	17912	0.306	0
96	17961	0.307	0
96	17963	0.307	0
96	17995	0.308	0
96	17998	0.308	0
96	18001	0.308	0
96	18010	0.308	0
96	18013	0.308	0
96	18016	0.308	0
96	18019	0.308	0
96	18022	0.308	0
96	18025	0.308	0
96	18042	0.308	0
96	18048	0.308	0
96	18083	0.309	0
96	18110	0.31	0
96	18113	0.31	0
96	18153	0.311	0
96	18156	0.311	0
96	18205	0.312	0
96	18207	0.312	0
96	18262	0.313	0
96	18288	0.314	0
96	18291	0.314	0
96	18294	0.314	0
96	18303	0.314	0
96	18306	0.314	0
96	18309	0.314	0
96	18312	0.314	0
96	18315	0.314	0
96	18318	0.314	0
96	18335	0.314	0
96	18347	0.314	0
96	18374	0.315	0
96	18377	0.315	0
96	18417	0.316	0
96	18420	0.316	0
96	18449	0.317	0
96	18451	0.317	0
96	18506	0.318	0
96	18561	0.319	0
96	18588	0.32	0
96	18591	0.32	0
96	18594	0.32	0
96	18603	0.32	0
96	18606	0.32	0
96	18609	0.32	0
96	18612	0.32	0
96	18615	0.32	0
96	18618	0.32	0
96	18635	0.32	0
96	18638	0.32	0
96	18641	0.32	0
96	18681	0.321	0
96	18684	0.321	0
96	18713	0.322	0
96	18715	0.322	0
96	18750	0.323	0
96	18805	0.324	0
96	18852	0.325	0
96	18855	0.325	0
96	18889	0.326	0
96	18892	0.326	0
96	18895	0.326	0
96	18904	0.326	0
96	18907	0.326	0
96	18910	0.326	0
96	18913	0.326	0
96	18916	0.326	0
96	18919	0.326	0
96	18936	0.326	0
96	18945	0.326	0
96	18948	0.326	0
96	18977	0.327	0
96	18979	0.327	0
96	19014	0.328	0
96	19049	0.329	0
96	19096	0.33	0
96	19099	0.33	0
96	19159	0.331	0
96	19162	0.331	0
96	19188	0.332	0
96	19191	0.332	0
96	19194	0.332	0
96	19203	0.332	0
96	19206	0.332	0
96	19209	0.332	0
96	19212	0.332	0
96	19215	0.332	0
96	19218	0.332	0
96	19235	0.332	0
96	19241	0.332	0
96	19243	0.332	0
96	19278	0.333	0
96	19313	0.334	0
96	19340	0.335	0
96	19343	0.335	0
96	19403	0.336	0
96	19406	0.336	0
96	19455	0.337	0
96	19457	0.337	0
96	19489	0.338	0
96	19492	0.338	0
96	19495	0.338	0
96	19504	0.338	0
96	19507	0.338	0
96	19510	0.338	0
96	19513	0.338	0
96	19516	0.338	0
96	19519	0.338	0
96	19536	0.338	0
96	19542	0.338	0
96	19577	0.339	0
96	19604	0.34	0
96	19607	0.34	0
96	19647	0.341	0
96	19650	0.341	0
96	19699	0.342	0
96	19701	0.342	0
96	19756	0.343	0
96	19782	0.344	0
96	19785	0.344	0
96	19788	0.344	0
96	19797	0.344	0
96	19800	0.344	0
96	19803	0.344	0
96	19806	0.344	0
96	19809	0.344	0
96	19812	0.344	0
96	19829	0.344	0
96	19841	0.344	0
96	19868	0.345	0
96	19871	0.345	0
96	19911	0.346	0
96	19914	0.346	0
96	19943	0.347	0
96	19945	0.347	0
96	20000	0.348	0
96	20055	0.349	0
96	20082	0.35	0
96	20085	0.35	0
96	20088	0.35	0
96	20097	0.35	0
96	20100	0.35	0
96	20103	0.35	0
96	20106	0.35	0
96	20109	0.35	0
96	20112	0.35	0
96	20129	0.35	0
96	20132	0.35	0
96	20135	0.35	0
96	20175	0.351	0
96	20178	0.351	0
96	20207	0.352	0
96	20209	0.352	0
96	20244	0.353	0
96	20299	0.354	0
96	20346	0.355	0
96	20349	0.355	0
96	20383	0.356	0
96	20386	0.356	0
96	20389	0.356	0
96	20398	0.356	0
96	20401	0.356	0
96	20404	0.356	0
96	20407	0.356	0
96	20410	0.356	0
96	20413	0.356	0
96	20430	0.356	0
96	20439	0.356	0
96	20442	0.356	0
96	20471	0.357	0
96	20473	0.357	0
96	20508	0.358	0
96	20543	0.359	0
96	20590	0.36	0
96	20593	0.36	0
96	20653	0.361	0
96	20656	0.361	0
96	20682	0.362	0
96	20685	0.362	0
96	20688	0.362	0
96	20697	0.362	0
96	20700	0.362	0
96	20703	0.362	0
96	20706	0.362	0
96	20709	0.362	0
96	20712	0.362	0
96	20729	0.362	0
96	20735	0.362	0
96	20737	0.362	0
96	20772	0.363	0
96	20807	0.364	0
96	20834	0.365	0
96	20837	0.365	0
96	20897	0.366	0
96	20900	0.366	0
96	20949	0.367	0
96	20951	0.367	0
96	20983	0.368	0
96	20986	0.368	0
96	20989	0.368	0
96	20998	0.368	0
96	21001	0.368	0
96	21004	0.368	0
96	21007	0.368	0
96	21010	0.368	0
96	21013	0.368	0
96	21030	0.368	0
96	21036	0.368	0
96	21071	0.369	0
96	21098	0.37	0
96	21101	0.37	0
96	21141	0.371	0
96	21144	0.371	0
96	21193	0.372	0
96	21195	0.372	0
96	21250	0.373	0
96	21276	0.374	0
96	21279	0.374	0
96	21282	0.374	0
96	21291	0.374	0
96	21294	0.374	0
96	21297	0.374	0
96	21300	0.374	0
96	21303	0.374	0
96	21306	0.374	0
96	21323	0.374	0
96	21335	0.374	0
96	21362	0.375	0
96	21365	0.375	0
96	21405	0.376	0
96	21408	0.376	0
96	21437	0.377	0
96	21439	0.377	0
96	21494	0.378	0
96	21549	0.379	0
96	21576	0.38	0
96	21579	0.38	0
96	21582	0.38	0
96	21591	0.38	0
96	21594	0.38	0
96	21597	0.38	0
96	21600	0.38	0
96	21603	0.38	0
96	21606	0.38	0
96	21623	0.38	0
96	21626	0.38	0
96	21629	0.38	0
96	21669	0.381	0
96	21672	0.381	0
96	21701	0.382	0
96	21703	0.382	0
96	21738	0.383	0
96	21793	0.384	0
96	21840	0.385	0
96	21843	0.385	0
96	21877	0.386	0
96	21880	0.386	0
96	21883	0.386	0
96	21892	0.386	0
96	21895	0.386	0
96	21898	0.386	0
96	21901	0.386	0
96	21904	0.386	0
96	21907	0.386	0
96	21924	0.386	0
96	21933	0.386	0
96	21936	0.386	0
96	21965	0.387	0
96	21967	0.387	0
96	22002	0.388	0
96	22037	0.389	0
96	22084	0.39	0
96	22087	0.39	0
96	22147	0.391	0
96	22150	0.391	0
96	22176	0.392	0
96	22179	0.392	0
96	22182	0.392	0
96	22191	0.392	0
96	22194	0.392	0
96	22197	0.392	0
96	22200	0.392	0
96	22203	0.392	0
96	22206	0.392	0
96	22223	0.392	0
96	22229	0.392	0
96	22231	0.392	0
96	22266	0.393	0
96	22301	0.394	0
96	22328	0.395	0
96	22331	0.395	0
96	22391	0.396	0
96	22394	0.396	0
96	22443	0.397	0
96	22445	0.397	0
96	22477	0.398	0
96	22480	0.398	0
96	22483	0.398	0
96	22492	0.398	0
96	22495	0.398	0
96	22498	0.398	0
96	22501	0.398	0
96	22504	0.398	0
96	22507	0.398	0
96	22524	0.398	0
96	22530	0.398	0
96	22565	0.399	0
96	22592	0.4	0
96	22595	0.4	0
96	22635	0.401	0
96	22638	0.401	0
96	22687	0.402	0
96	22689	0.402	0
96	22744	0.403	0
96	22770	0.404	0
96	22773	0.404	0
96	22776	0.404	0
96	22785	0.404	0
96	22788	0.404	0
96	22791	0.404	0
96	22794	0.404	0
96	22797	0.404	0
96	22800	0.404	0
96	22817	0.404	0
96	22829	0.404	0
96	22856	0.405	0
96	22859	0.405	0
96	22899	0.406	0
96	22902	0.406	0
96	22931	0.407	0
96	22933	0.407	0
96	22996	0.408	0
96	23051	0.409	0
96	23078	0.41	0
96	23081	0.41	0
96	23084	0.41	0
96	23093	0.41	0
96	23096	0.41	0
96	23099	0.41	0
96	23102	0.41	0
96	23105	0.41	0
96	23108	0.41	0
96	23125	0.41	0
96	23128	0.41	0
96	23131	0.41	0
96	23171	0.411	0
96	23174	0.411	0
96	23203	0.412	0
96	23205	0.412	0
96	23240	0.413	0
96	23295	0.414	0
96	23342	0.415	0
96	23345	0.415	0
96	23379	0.416	0
96	23382	0.416	0
96	23385	0.416	0
96	23394	0.416	0
96	23397	0.416	0
96	23400	0.416	0
96	23403	0.416	0
96	23406	0.416	0
96	23409	0.416	0
96	23426	0.416	0
96	23435	0.416	0
96	23438	0.416	0
96	23467	0.417	0
96	23469	0.417	0
96	23504	0.418	0
96	23539	0.419	0
96	23586	0.42	0
96	23589	0.42	0
96	23649	0.421	0
96	23652	0.421	0
96	23678	0.422	0
96	23681	0.422	0
96	23684	0.422	0
96	23693	0.422	0
96	23696	0.422	0
96	23699	0.422	0
96	23702	0.422	0
96	23705	0.422	0
96	23708	0.422	0
96	23725	0.422	0
96	23731	0.422	0
96	23733	0.422	0
96	23768	0.423	0
96	23803	0.424	0
96	23830	0.425	0
96	23833	0.425	0
96	23893	0.426	0
96	23896	0.426	0
96	23945	0.427	0
96	23947	0.427	0
96	23979	0.428	0
96	23982	0.428	0
96	23985	0.428	0
96	23994	0.428	0
96	23997	0.428	0
96	24000	0.428	0
96	24003	0.428	0
96	24006	0.428	0
96	24009	0.428	0
96	24026	0.428	0
96	24032	0.428	0
96	24067	0.429	0
96	24094	0.43	0
96	24097	0.43	0
96	24137	0.431	0
96	24140	0.431	0
96	24189	0.432	0
96	24191	0.432	0
96	24246	0.433	0
96	24272	0.434	0
96	24275	0.434	0
96	24278	0.434	0
96	24287	0.434	0
96	24290	0.434	0
96	24293	0.434	0
96	24296	0.434	0
96	24299	0.434	0
96	24302	0.434	0
96	24319	0.434	0
96	24331	0.434	0
96	24358	0.435	0
96	24361	0.435	0
96	24401	0.436	0
96	24404	0.436	0
96	24433	0.437	0
96	24435	0.437	0
96	24490	0.438	0
96	24545	0.439	0
96	24572	0.44	0
96	24575	0.44	0
96	24578	0.44	0
96	24587	0.44	0
96	24590	0.44	0
96	24593	0.44	0
96	24596	0.44	0
96	24599	0.44	0
96	24602	0.44	0
96	24619	0.44	0
96	24622	0.44	0
96	24625	0.44	0
96	24665	0.441	0
96	24668	0.441	0
96	24697	0.442	0
96	24699	0.442	0
96	24734	0.443	0
96	24789	0.444	0
96	24836	0.445	0
96	24839	0.445	0
96	24873	0.446	0
96	24876	0.446	0
96	24879	0.446	0
96	24888	0.446	0
96	24891	0.446	0
96	24894	0.446	0
96	24897	0.446	0
96	24900	0.446	0
96	24903	0.446	0
96	24920	0.446	0
96	24929	0.446	0
96	24932	0.446	0
96	24961	0.447	0
96	24963	0.447	0
96	24998	0.448	0
96	25033	0.449	0
96	25080	0.45	0
96	25083	0.45	0
96	25143	0.451	0
96	25146	0.451	0
96	25172	0.452	0
96	25175	0.452	0
96	25178	0.452	0
96	25187	0.452	0
96	25190	0.452	0
96	25193	0.452	0
96	25196	0.452	0
96	25199	0.452	0
96	25202	0.452	0
96	25219	0.452	0
96	25225	0.452	0
96	25227	0.452	0
96	25262	0.453	0
96	25297	0.454	0
96	25324	0.455	0
96	25327	0.455	0
96	25387	0.456	0
96	25390	0.456	0
96	25439	0.457	0
96	25441	0.457	0
96	25481	0.458	0
96	25484	0.458	0
96	25487	0.458	0
96	25496	0.458	0
96	25499	0.458	0
96	25502	0.458	0
96	25505	0.458	0
96	25508	0.458	0
96	25511	0.458	0
96	25528	0.458	0
96	25534	0.458	0
96	25569	0.459	0
96	25596	0.46	0
96	25599	0.46	0
96	25639	0.461	0
96	25642	0.461	0
96	25691	0.462	0
96	25693	0.462	0
96	25748	0.463	0
96	25774	0.464	0
96	25777	0.464	0
96	25780	0.464	0
96	25789	0.464	0
96	25792	0.464	0
96	25795	0.464	0
96	25798	0.464	0
96	25801	0.464	0
96	25804	0.464	0
96	25821	0.464	0
96	25833	0.464	0
96	25860	0.465	0
96	25863	0.465	0
96	25903	0.466	0
96	25906	0.466	0
96	25935	0.467	0
96	25937	0.467	0
96	25992	0.468	0
96	26047	0.469	0
96	26074	0.47	0
96	26077	0.47	0
96	26080	0.47	0
96	26089	0.47	0
96	26092	0.47	0
96	26095	0.47	0
96	26098	0.47	0
96	26101	0.47	0
96	26104	0.47	0
96	26121	0.47	0
96	26124	0.47	0
96	26127	0.47	0
96	26167	0.471	0
96	26170	0.471	0
96	26199	0.472	0
96	26201	0.472	0
96	26236	0.473	0
96	26291	0.474	0
96	26338	0.475	0
96	26341	0.475	0
96	26375	0.476	0
96	26378	0.476	0
96	26381	0.476	0
96	26390	0.476	0
96	26393	0.476	0
96	26396	0.476	0
96	26399	0.476	0
96	26402	0.476	0
96	26405	0.476	0
96	26422	0.476	0
96	26431	0.476	0
96	26434	0.476	0
96	26463	0.477	0
96	26465	0.477	0
96	26500	0.478	0
96	26535	0.479	0
96	26582	0.48	0
96	26585	0.48	0
96	26645	0.481	0
96	26648	0.481	0
96	26674	0.482	0
96	26677	0.482	0
96	26680	0.482	0
96	26689	0.482	0
96	26692	0.482	0
96	26695	0.482	0
96	26698	0.482	0
96	26701	0.482	0
96	26704	0.482	0
96	26721	0.482	0
96	26727	0.482	0
96	26729	0.482	0
96	26764	0.483	0
96	26799	0.484	0
96	26826	0.485	0
96	26829	0.485	0
96	26889	0.486	0
96	26892	0.486	0
96	26941	0.487	0
96	26943	0.487	0
96	26975	0.488	0
96	26978	0.488	0
96	26981	0.488	0
96	26990	0.488	0
96	26993	0.488	0
96	26996	0.488	0
96	26999	0.488	0
96	27002	0.488	0
96	27005	0.488	0
96	27022	0.488	0
96	27028	0.488	0
[...]
1174	12184	0.2070005104	104
1174	12184	0.2070005104	106
1174	12184	0.2070005104	108
1174	12184	0.2070005104	110
1174	12184	0.2070005104	112
1174	12184	0.2070005104	114
1174	12184	0.2070005104	116
1174	12184	0.2070005104	118
1174	12184	0.2070005104	120
1174	12184	0.2070005104	122
1174	12184	0.2070005104	124
1174	12184	0.2070005104	126
1174	12184	0.2070005104	128
1174	12184	0.2070005104	130
1174	12184	0.2070005104	132
1174	12184	0.2070005104	134
1174	12184	0.2070005104	136
1174	12184	0.2070005104	138
1174	12184	0.2070005104	140
1174	12184	0.2070005104	142
1174	12184	0.2070005104	144
1174	12184	0.2070005104	146
1174	12184	0.2070005104	148
1174	12184	0.2070005104	150
1174	12184	0.2070005104	152
1174	12184	0.2070005104	154
1174	12184	0.2070005104	156
1174	12184	0.2070005104	158
1174	12184	0.2070005104	160
1174	22944	0.4070019656	158
1174	22944	0.4070019656	156
1174	22944	0.4070019656	154
1174	22944	0.4070019656	152
1174	22944	0.4070019656	150
1174	22944	0.4070019656	148
1174	22944	0.4070019656	146
1174	22944	0.4070019656	144
1174	22944	0.4070019656	142
1174	22944	0.4070019656	140
1174	22944	0.4070019656	138
1174	22944	0.4070019656	136
1174	22944	0.4070019656	134
1174	22944	0.4070019656	132
1174	22944	0.4070019656	130
1174	22944	0.4070019656	128
1174	22944	0.4070019656	126
1174	22944	0.4070019656	124
1174	22944	0.4070019656	122
1174	22944	0.4070019656	120
1174	22944	0.4070019656	118
1174	22944	0.4070019656	116
1174	22944	0.4070019656	114
1174	22944	0.4070019656	112
1174	22944	0.4070019656	110
1174	22944	0.4070019656	108
1174	22944	0.4070019656	106
1174	22944	0.4070019656	104
1174	22944	0.4070019656	102
1174	22944	0.4070019656	100
1174	22944	0.4070019656	98
1174	22944	0.4070019656	96
1174	22944	0.4070019656	94
1174	22944	0.4070019656	92
1174	22944	0.4070019656	90
1174	22944	0.4070019656	88
1174	22944	0.4070019656	86
1174	22944	0.4070019656	84
1174	22944	0.4070019656	82
1174	22944	0.4070019656	80
1174	22944	0.4070019656	78
1174	22944	0.4070019656	76
1174	22944	0.4070019656	74
1174	22944	0.4070019656	72
1174	22944	0.4070019656	70
1174	22944	0.4070019656	68
1174	22944	0.4070019656	66
1174	22944	0.4070019656	64
1174	22944	0.4070019656	62
1174	22944	0.4070019656	60
1174	22944	0.4070019656	58
1174	22944	0.4070019656	56
1174	22944	0.4070019656	54
1174	22944	0.4070019656	52
1174	22944	0.4070019656	50
1174	22944	0.4070019656	48
1174	22944	0.4070019656	46
1174	22944	0.4070019656	44
1174	22944	0.4070019656	42
1174	22944	0.4070019656	40
1174	22944	0.4070019656	38
1174	22944	0.4070019656	36
1174	22944	0.4070019656	34
1174	22944	0.4070019656	32
1174	22944	0.4070019656	30
1174	22944	0.4070019656	28
1174	22944	0.4070019656	26
1174	22944	0.4070019656	24
1174	22944	0.4070019656	22
1174	22944	0.4070019656	20
1174	22944	0.4070019656	18
1174	22944	0.4070019656	16
1174	22944	0.4070019656	14
1174	22944	0.4070019656	12
1174	22944	0.4070019656	10
1174	22944	0.4070019656	8
1174	22944	0.4070019656	6
1174	22944	0.4070019656	4
1174	22944	0.4070019656	2
1174	22944	0.4070019656	0
1175	593	0.007	2
1175	645	0.0070001912	0
1175	645	0.0070001912	2
1175	645	0.0070001912	4
1175	645	0.0070001912	6
1175	645	0.0070001912	8
1175	645	0.0070001912	10
1175	645	0.0070001912	12
1175	645	0.0070001912	14
1175	645	0.0070001912	16
1175	645	0.0070001912	18
1175	12184	0.2070005104	16
1175	12184	0.2070005104	14
1175	12184	0.2070005104	12
1175	12184	0.2070005104	10
1175	12184	0.2070005104	8
1175	12184	0.2070005104	6
1175	12184	0.2070005104	4
1175	12184	0.2070005104	2
1175	12184	0.2070005104	0
1175	12184	0.2070005104	2
1175	12184	0.2070005104	4
1175	12184	0.2070005104	6
1175	12184	0.2070005104	8
1175	12184	0.2070005104	10
1175	12184	0.2070005104	12
1175	12184	0.2070005104	14
1175	12184	0.2070005104	16
1175	12184	0.2070005104	18
1175	12184	0.2070005104	20
1175	12184	0.2070005104	22
1175	12184	0.2070005104	24
1175	12184	0.2070005104	26
1175	12184	0.2070005104	28
1175	12184	0.2070005104	30
1175	12184	0.2070005104	32
1175	12184	0.2070005104	34
1175	12184	0.2070005104	36
1175	12184	0.2070005104	38
1175	12184	0.2070005104	40
1175	12184	0.2070005104	42
1175	12184	0.2070005104	44
1175	12184	0.2070005104	46
1175	12184	0.2070005104	48
1175	12184	0.2070005104	50
1175	12184	0.2070005104	52
1175	12184	0.2070005104	54
1175	12184	0.2070005104	56
1175	12184	0.2070005104	58
1175	12184	0.2070005104	60
1175	12184	0.2070005104	62
1175	12184	0.2070005104	64
1175	12184	0.2070005104	66
1175	12184	0.2070005104	68
1175	12184	0.2070005104	70
1175	12184	0.2070005104	72
1175	12184	0.2070005104	74
1175	12184	0.2070005104	76
1175	12184	0.2070005104	78
1175	12184	0.2070005104	80
1175	12184	0.2070005104	82
1175	12184	0.2070005104	84
1175	12184	0.2070005104	86
1175	12184	0.2070005104	88
1175	12184	0.2070005104	90
1175	12184	0.2070005104	92
1175	12184	0.2070005104	94
1175	12184	0.2070005104	96
1175	12184	0.2070005104	98
1175	12184	0.2070005104	100
1175	12184	0.2070005104	102
1175	12184	0.2070005104	104
1175	12184	0.2070005104	106
1175	12184	0.2070005104	108
1175	12184	0.2070005104	110
1175	12184	0.2070005104	112
1175	12184	0.2070005104	114
1175	12184	0.2070005104	116
1175	12184	0.2070005104	118
1175	12184	0.2070005104	120
1175	12184	0.2070005104	122
1175	12184	0.2070005104	124
1175	12184	0.2070005104	126
1175	12184	0.2070005104	128
1175	12184	0.2070005104	130
1175	12184	0.2070005104	132
1175	12184	0.2070005104	134
1175	12184	0.2070005104	136
1175	12184	0.2070005104	138
1175	12184	0.2070005104	140
1175	12184	0.2070005104	142
1175	12184	0.2070005104	144
1175	12184	0.2070005104	146
1175	12184	0.2070005104	148
1175	12184	0.2070005104	150
1175	12184	0.2070005104	152
1175	12184	0.2070005104	154
1175	12184	0.2070005104	156
1175	12184	0.2070005104	158
1175	12184	0.2070005104	160
1175	22944	0.4070019656	158
1175	22944	0.4070019656	156
1175	22944	0.4070019656	154
1175	22944	0.4070019656	152
1175	22944	0.4070019656	150
1175	22944	0.4070019656	148
1175	22944	0.4070019656	146
1175	22944	0.4070019656	144
1175	22944	0.4070019656	142
1175	22944	0.4070019656	140
1175	22944	0.4070019656	138
1175	22944	0.4070019656	136
1175	22944	0.4070019656	134
1175	22944	0.4070019656	132
1175	22944	0.4070019656	130
1175	22944	0.4070019656	128
1175	22944	0.4070019656	126
1175	22944	0.4070019656	124
1175	22944	0.4070019656	122
1175	22944	0.4070019656	120
1175	22944	0.4070019656	118
1175	22944	0.4070019656	116
1175	22944	0.4070019656	114
1175	22944	0.4070019656	112
1175	22944	0.4070019656	110
1175	22944	0.4070019656	108
1175	22944	0.4070019656	106
1175	22944	0.4070019656	104
1175	22944	0.4070019656	102
1175	22944	0.4070019656	100
1175	22944	0.4070019656	98
1175	22944	0.4070019656	96
1175	22944	0.4070019656	94
1175	22944	0.4070019656	92
1175	22944	0.4070019656	90
1175	22944	0.4070019656	88
1175	22944	0.4070019656	86
1175	22944	0.4070019656	84
1175	22944	0.4070019656	82
1175	22944	0.4070019656	80
1175	22944	0.4070019656	78
1175	22944	0.4070019656	76
1175	22944	0.4070019656	74
1175	22944	0.4070019656	72
1175	22944	0.4070019656	70
1175	22944	0.4070019656	68
1175	22944	0.4070019656	66
1175	22944	0.4070019656	64
1175	22944	0.4070019656	62
1175	22944	0.4070019656	60
1175	22944	0.4070019656	58
1175	22944	0.4070019656	56
1175	22944	0.4070019656	54
1175	22944	0.4070019656	52
1175	22944	0.4070019656	50
1175	22944	0.4070019656	48
1175	22944	0.4070019656	46
1175	22944	0.4070019656	44
1175	22944	0.4070019656	42
1175	22944	0.4070019656	40
1175	22944	0.4070019656	38
1175	22944	0.4070019656	36
1175	22944	0.4070019656	34
1175	22944	0.4070019656	32
1175	22944	0.4070019656	30
1175	22944	0.4070019656	28
1175	22944	0.4070019656	26
1175	22944	0.4070019656	24
1175	22944	0.4070019656	22
1175	22944	0.4070019656	20
1175	22944	0.4070019656	18
1175	22944	0.4070019656	16
1175	22944	0.4070019656	14
1175	22944	0.4070019656	12
1175	22944	0.4070019656	10
1175	22944	0.4070019656	8
1175	22944	0.4070019656	6
1175	22944	0.4070019656	4
1175	22944	0.4070019656	2
1175	22944	0.4070019656	0
1178	645	0.0070001912	0
1178	12184	0.2070005104	0
1178	22944	0.4070019656	0
1179	645	0.0070001912	0
1179	12184	0.2070005104	0
1179	22944	0.4070019656	0
1180	645	0.0070001912	0
1180	12184	0.2070005104	0
1180	22944	0.4070019656	0
1181	645	0.0070001912	0
1181	12184	0.2070005104	0
1181	22944	0.4070019656	0
1182	150	0.0000001228	0
1185	645	0.0070001912	2000
1185	12184	0.2070005104	2009
1185	22944	0.4070019656	2089
1187	645	0.0070001912	0
1187	12184	0.2070005104	0
1187	22944	0.4070019656	0
1188	645	0.0070001912	0
1188	12184	0.2070005104	0
1188	22944	0.4070019656	0
1190	235	0.0000006304	3
1192	235	0.0000006304	65535
1193	235	0.0000006304	8940
1194	235	0.0000006304	0.3725
1197	235	0.0000006304	1
1209	163	0.0000003096	0
1217	235	0.0000006304	3
1219	235	0.0000006304	65535
1220	235	0.0000006304	8940
1221	235	0.0000006304	0.3725
1224	235	0.0000006304	1
1236	163	0.0000003096	0
1244	236	0.0000006304	3
1246	236	0.0000006304	65535
1247	236	0.0000006304	8940
1248	236	0.0000006304	0.3725
1251	236	0.0000006304	1
1263	164	0.0000003096	0
1271	236	0.0000006304	3
1273	236	0.0000006304	65535
1274	236	0.0000006304	8940
1275	236	0.0000006304	0.3725
1278	236	0.0000006304	1
1290	164	0.0000003096	0
1300	3763	0.0570001912	0
1300	15059	0.2570005104	0
1300	25452	0.4570019656	0
1301	3669	0.057	1
1301	3669	0.057	0
1301	3670	0.057	1
1301	3671	0.057	2
1301	3672	0.057	3
1301	3673	0.057	4
1301	3674	0.057	5
1301	3675	0.057	6
1301	3676	0.057	7
1301	3677	0.057	8
1301	3678	0.057	9
1301	3763	0.0570001912	8
1301	3763	0.0570001912	7
1301	3763	0.0570001912	6
1301	3763	0.0570001912	5
1301	3763	0.0570001912	4
1301	3763	0.0570001912	3
1301	3763	0.0570001912	2
1301	3763	0.0570001912	1
1301	3763	0.0570001912	0
1301	4238	0.063	1
1301	4239	0.063	2
1301	4240	0.063	3
1301	4241	0.063	4
1301	4242	0.063	5
1301	4243	0.063	6
1301	4244	0.063	7
1301	4245	0.063	8
1301	4246	0.063	9
1301	4247	0.063	10
1301	4716	0.069	11
1301	4717	0.069	12
1301	4718	0.069	13
1301	4719	0.069	14
1301	4720	0.069	15
1301	4721	0.069	16
1301	4722	0.069	17
1301	4723	0.069	18
1301	4724	0.069	19
1301	4725	0.069	20
1301	5162	0.075	21
1301	5163	0.075	22
1301	5164	0.075	23
1301	5165	0.075	24
1301	5166	0.075	25
1301	5167	0.075	26
1301	5168	0.075	27
1301	5169	0.075	28
1301	5170	0.075	29
1301	5171	0.075	30
1301	5581	0.081	31
1301	5582	0.081	32
1301	5583	0.081	33
1301	5584	0.081	34
1301	5585	0.081	35
1301	5586	0.081	36
1301	5587	0.081	37
1301	5588	0.081	38
1301	5589	0.081	39
1301	5590	0.081	40
1301	5975	0.087	41
1301	5976	0.087	42
1301	5977	0.087	43
1301	5978	0.087	44
1301	5979	0.087	45
1301	5980	0.087	46
1301	5981	0.087	47
1301	5982	0.087	48
1301	5983	0.087	49
1301	5984	0.087	50
1301	6361	0.093	51
1301	6362	0.093	52
1301	6363	0.093	53
1301	6364	0.093	54
1301	6365	0.093	55
1301	6366	0.093	56
1301	6367	0.093	57
1301	6368	0.093	58
1301	6369	0.093	59
1301	6370	0.093	60
1301	6711	0.099	61
1301	6712	0.099	62
1301	6713	0.099	63
1301	6714	0.099	64
1301	6715	0.099	65
1301	6716	0.099	66
1301	6717	0.099	67
1301	6718	0.099	68
1301	6719	0.099	69
1301	6720	0.099	70
1301	7051	0.105	71
1301	7052	0.105	72
1301	7053	0.105	73
1301	7054	0.105	74
1301	7055	0.105	75
1301	7056	0.105	76
1301	7057	0.105	77
1301	7058	0.105	78
1301	7059	0.105	79
1301	7060	0.105	80
1301	15059	0.2570005104	79
1301	15059	0.2570005104	78
1301	15059	0.2570005104	77
1301	15059	0.2570005104	76
1301	15059	0.2570005104	75
1301	15059	0.2570005104	74
1301	15059	0.2570005104	73
1301	15059	0.2570005104	72
1301	15059	0.2570005104	71
1301	15059	0.2570005104	70
1301	15059	0.2570005104	69
1301	15059	0.2570005104	68
1301	15059	0.2570005104	67
1301	15059	0.2570005104	66
1301	15059	0.2570005104	65
1301	15059	0.2570005104	64
1301	15059	0.2570005104	63
1301	15059	0.2570005104	62
1301	15059	0.2570005104	61
1301	15059	0.2570005104	60
1301	15059	0.2570005104	59
1301	15059	0.2570005104	58
1301	15059	0.2570005104	57
1301	15059	0.2570005104	56
1301	15059	0.2570005104	55
1301	15059	0.2570005104	54
1301	15059	0.2570005104	53
1301	15059	0.2570005104	52
1301	15059	0.2570005104	51
1301	15059	0.2570005104	50
1301	15059	0.2570005104	49
1301	15059	0.2570005104	48
1301	15059	0.2570005104	47
1301	15059	0.2570005104	46
1301	15059	0.2570005104	45
1301	15059	0.2570005104	44
1301	15059	0.2570005104	43
1301	15059	0.2570005104	42
1301	15059	0.2570005104	41
1301	15059	0.2570005104	40
1301	15059	0.2570005104	39
1301	15059	0.2570005104	38
1301	15059	0.2570005104	37
1301	15059	0.2570005104	36
1301	15059	0.2570005104	35
1301	15059	0.2570005104	34
1301	15059	0.2570005104	33
1301	15059	0.2570005104	32
1301	15059	0.2570005104	31
1301	15059	0.2570005104	30
1301	15059	0.2570005104	29
1301	15059	0.2570005104	28
1301	15059	0.2570005104	27
1301	15059	0.2570005104	26
1301	15059	0.2570005104	25
1301	15059	0.2570005104	24
1301	15059	0.2570005104	23
1301	15059	0.2570005104	22
1301	15059	0.2570005104	21
1301	15059	0.2570005104	20
1301	15059	0.2570005104	19
1301	15059	0.2570005104	18
1301	15059	0.2570005104	17
1301	15059	0.2570005104	16
1301	15059	0.2570005104	15
1301	15059	0.2570005104	14
1301	15059	0.2570005104	13
1301	15059	0.2570005104	12
1301	15059	0.2570005104	11
1301	15059	0.2570005104	10
1301	15059	0.2570005104	9
1301	15059	0.2570005104	8
1301	15059	0.2570005104	7
1301	15059	0.2570005104	6
1301	15059	0.2570005104	5
1301	15059	0.2570005104	4
1301	15059	0.2570005104	3
1301	15059	0.2570005104	2
1301	15059	0.2570005104	1
1301	15059	0.2570005104	0
1304	645	0.0070001912	0
1304	12184	0.2070005104	0
1304	22944	0.4070019656	0
1305	593	0.007	1
1305	593	0.007	0
1305	594	0.007	1
1305	595	0.007	2
1305	596	0.007	3
1305	597	0.007	4
1305	598	0.007	5
1305	599	0.007	6
1305	600	0.007	7
1305	601	0.007	8
1305	602	0.007	9
1305	645	0.0070001912	8
1305	645	0.0070001912	7
1305	645	0.0070001912	6
1305	645	0.0070001912	5
1305	645	0.0070001912	4
1305	645	0.0070001912	3
1305	645	0.0070001912	2
1305	645	0.0070001912	1
1305	645	0.0070001912	0
1305	916	0.013	1
1305	917	0.013	2
1305	918	0.013	3
1305	919	0.013	4
1305	920	0.013	5
1305	921	0.013	6
1305	922	0.013	7
1305	923	0.013	8
1305	924	0.013	9
1305	925	0.013	10
1305	1213	0.019	11
1305	1214	0.019	12
1305	1215	0.019	13
1305	1216	0.019	14
1305	1217	0.019	15
1305	1218	0.019	16
1305	1219	0.019	17
1305	1220	0.019	18
1305	1221	0.019	19
1305	1222	0.019	20
1305	1521	0.025	21
1305	1522	0.025	22
1305	1523	0.025	23
1305	1524	0.025	24
1305	1525	0.025	25
1305	1526	0.025	26
1305	1527	0.025	27
1305	1528	0.025	28
1305	1529	0.025	29
1305	1530	0.025	30
1305	1858	0.031	31
1305	1859	0.031	32
1305	1860	0.031	33
1305	1861	0.031	34
1305	1862	0.031	35
1305	1863	0.031	36
1305	1864	0.031	37
1305	1865	0.031	38
1305	1866	0.031	39
1305	1867	0.031	40
1305	2230	0.037	41
1305	2231	0.037	42
1305	2232	0.037	43
1305	2233	0.037	44
1305	2234	0.037	45
1305	2235	0.037	46
1305	2236	0.037	47
1305	2237	0.037	48
1305	2238	0.037	49
1305	2239	0.037	50
1305	2620	0.043	51
1305	2621	0.043	52
1305	2622	0.043	53
1305	2623	0.043	54
1305	2624	0.043	55
1305	2625	0.043	56
1305	2626	0.043	57
1305	2627	0.043	58
1305	2628	0.043	59
1305	2629	0.043	60
1305	3020	0.049	61
1305	3021	0.049	62
1305	3022	0.049	63
1305	3023	0.049	64
1305	3024	0.049	65
1305	3025	0.049	66
1305	3026	0.049	67
1305	3027	0.049	68
1305	3028	0.049	69
1305	3029	0.049	70
1305	3471	0.055	71
1305	3472	0.055	72
1305	3473	0.055	73
1305	3474	0.055	74
1305	3475	0.055	75
1305	3476	0.055	76
1305	3477	0.055	77
1305	3478	0.055	78
1305	3479	0.055	79
1305	3480	0.055	80
1305	12184	0.2070005104	79
1305	12184	0.2070005104	78
1305	12184	0.2070005104	77
1305	12184	0.2070005104	76
1305	12184	0.2070005104	75
1305	12184	0.2070005104	74
1305	12184	0.2070005104	73
1305	12184	0.2070005104	72
1305	12184	0.2070005104	71
1305	12184	0.2070005104	70
1305	12184	0.2070005104	69
1305	12184	0.2070005104	68
1305	12184	0.2070005104	67
1305	12184	0.2070005104	66
1305	12184	0.2070005104	65
1305	12184	0.2070005104	64
1305	12184	0.2070005104	63
1305	12184	0.2070005104	62
1305	12184	0.2070005104	61
1305	12184	0.2070005104	60
1305	12184	0.2070005104	59
1305	12184	0.2070005104	58
1305	12184	0.2070005104	57
1305	12184	0.2070005104	56
1305	12184	0.2070005104	55
1305	12184	0.2070005104	54
1305	12184	0.2070005104	53
1305	12184	0.2070005104	52
1305	12184	0.2070005104	51
1305	12184	0.2070005104	50
1305	12184	0.2070005104	49
1305	12184	0.2070005104	48
1305	12184	0.2070005104	47
1305	12184	0.2070005104	46
1305	12184	0.2070005104	45
1305	12184	0.2070005104	44
1305	12184	0.2070005104	43
1305	12184	0.2070005104	42
1305	12184	0.2070005104	41
1305	12184	0.2070005104	40
1305	12184	0.2070005104	39
1305	12184	0.2070005104	38
1305	12184	0.2070005104	37
1305	12184	0.2070005104	36
1305	12184	0.2070005104	35
1305	12184	0.2070005104	34
1305	12184	0.2070005104	33
1305	12184	0.2070005104	32
1305	12184	0.2070005104	31
1305	12184	0.2070005104	30
1305	12184	0.2070005104	29
1305	12184	0.2070005104	28
1305	12184	0.2070005104	27
1305	12184	0.2070005104	26
1305	12184	0.2070005104	25
1305	12184	0.2070005104	24
1305	12184	0.2070005104	23
1305	12184	0.2070005104	22
1305	12184	0.2070005104	21
1305	12184	0.2070005104	20
1305	12184	0.2070005104	19
1305	12184	0.2070005104	18
1305	12184	0.2070005104	17
1305	12184	0.2070005104	16
1305	12184	0.2070005104	15
1305	12184	0.2070005104	14
1305	12184	0.2070005104	13
1305	12184	0.2070005104	12
1305	12184	0.2070005104	11
1305	12184	0.2070005104	10
1305	12184	0.2070005104	9
1305	12184	0.2070005104	8
1305	12184	0.2070005104	7
1305	12184	0.2070005104	6
1305	12184	0.2070005104	5
1305	12184	0.2070005104	4
1305	12184	0.2070005104	3
1305	12184	0.2070005104	2
1305	12184	0.2070005104	1
1305	12184	0.2070005104	0
1319	869	0.012270864309	7504
1319	152689	3.012270864309	7504
1320	869	0.012270864309	7504
1320	152689	3.012270864309	7504
1322	869	0.012270864309	0
1322	152689	3.012270864309	0
1333	869	0.012270864309	0
1333	152689	3.012270864309	0
1343	952	0.013169782835	7504
1343	152749	3.013169782835	7504
1344	952	0.013169782835	7504
1344	152749	3.013169782835	7504
1346	952	0.013169782835	0
1346	152749	3.013169782835	0
1357	952	0.013169782835	0
1357	152749	3.013169782835	0
1367	960	0.013528948517	7504
1367	152756	3.013528948517	7504
1368	960	0.013528948517	7504
1368	152756	3.013528948517	7504
1370	960	0.013528948517	0
1370	152756	3.013528948517	0
1381	960	0.013528948517	0
1381	152756	3.013528948517	0
1391	1349	0.021843716542	7504
1392	1349	0.021843716542	7504
1394	1349	0.021843716542	0
1405	1349	0.021843716542	0
1415	1474	0.024352218178	7504
1416	1474	0.024352218178	7504
1418	1474	0.024352218178	0
1429	1474	0.024352218178	0
1439	1569	0.025271030879	7504
1440	1569	0.025271030879	7504
1442	1569	0.025271030879	0
1453	1569	0.025271030879	0
1463	1977	0.032546852513	7504
1464	1977	0.032546852513	7504
1466	1977	0.032546852513	0
1477	1977	0.032546852513	0
1487	2064	0.034129833705	7504
1488	2064	0.034129833705	7504
1490	2064	0.034129833705	0
1501	2064	0.034129833705	0
1511	2072	0.034439526021	7504
1512	2072	0.034439526021	7504
1514	2072	0.034439526021	0
1525	2072	0.034439526021	0
1535	2286	0.037261432968	7504
1536	2286	0.037261432968	7504
1538	2286	0.037261432968	0
1549	2286	0.037261432968	0
1559	2898	0.047532676856	7504
1560	2898	0.047532676856	7504
1562	2898	0.047532676856	0
1573	2898	0.047532676856	0
1583	2973	0.048413756283	7504
1584	2973	0.048413756283	7504
1586	2973	0.048413756283	0
1597	2973	0.048413756283	0
1607	3221	0.051566809383	7504
1608	3221	0.051566809383	7504
1610	3221	0.051566809383	0
1621	3221	0.051566809383	0
1631	3282	0.05273845314	7504
1632	3282	0.05273845314	7504
1634	3282	0.05273845314	0
1645	3282	0.05273845314	0
1655	3290	0.052847558425	7504
1656	3290	0.052847558425	7504
1658	3290	0.052847558425	0
1669	3290	0.052847558425	0
1679	3817	0.057084039294	7504
1680	3817	0.057084039294	7504
1682	3817	0.057084039294	0
1693	3817	0.057084039294	0
1703	4097	0.061955560849	7504
1704	4097	0.061955560849	7504
1706	4097	0.061955560849	0
1717	4097	0.061955560849	0
1727	4368	0.064453871725	7504
1728	4368	0.064453871725	7504
1730	4368	0.064453871725	0
1741	4368	0.064453871725	0
1751	5229	0.075361895796	7504
1752	5229	0.075361895796	7504
1754	5229	0.075361895796	0
1765	5229	0.075361895796	0
1775	6239	0.091364573385	7504
1776	6239	0.091364573385	7504
1778	6239	0.091364573385	0
1789	6239	0.091364573385	0
