version 2
run CAIN-30-20200508-17:06:36-16245
attr configname CAIN
attr datetime 20200508-17:06:36
attr dist 200
attr experiment CAIN
attr inifile omnetpp.ini
attr iterationvars "$numUe=25, $pwr=-50, $dist=200, $mob=\"./movements/RWP-0.0.movements\""
attr iterationvars2 "$numUe=25, $pwr=-50, $dist=200, $mob=\"./movements/RWP-0.0.movements\", $repetition=0"
attr measurement "$numUe=25, $pwr=-50, $dist=200, $mob=\"./movements/RWP-0.0.movements\""
attr mob "\"./movements/RWP-0.0.movements\""
attr network lte.simulations.networks.CAIN
attr numUe 25
attr processid 16245
attr pwr -50
attr repetition 0
attr replication #0
attr resultdir results
attr runnumber 30
attr seedset 0
param **.**.amcMode "\"AUTO\""
param **.amcMode "\"D2D\""
param **.cainNetwork true
param **.channelControl.alpha 1.0
param **.channelControl.carrierFrequency 2100e+6Hz
param **.channelControl.pMax 10W
param **.d2dCqi 7
param **.deployer.numRbDl 50
param **.deployer.numRbUl 50
param **.distThresh ${dist=200}
param **.fbDelay 1
param **.feedbackComputation "xmldoc(\"config_channel.xml\")"
param **.mobility.constraintAreaMaxX 1000m
param **.mobility.constraintAreaMaxY 1000m
param **.mobility.constraintAreaMaxZ 0m
param **.mobility.constraintAreaMinX 0m
param **.mobility.constraintAreaMinY 0m
param **.mobility.constraintAreaMinZ 0m
param **.nic.phy.channelModel "xmldoc(\"config_channel.xml\")"
param **.numBands 50
param **.pwrThresh "${pwr= -50}"
param **.qtdThresh 3
param **.rbAllocationType "\"localized\""
param **.routingRecorder.enabled false
param **.tcpApp[*].tClose -1s
param **.ueD2DTx[*].mobility.changeAngleBy "normal(0deg, 30deg)"
param **.ueD2DTx[*].mobility.changeInterval "normal(5s, 0.1s)"
param **.ueD2DTx[*].mobility.nodeId -1
param **.ueD2DTx[*].mobility.speed "normal(2mps, 0.01mps)"
param **.ueD2DTx[*].mobility.traceFile "${mob=\"./movements/RWP-0.0.movements\",\"./movements/RWP-0.5.movements\",\"./movements/RPGM-0.0.movements\",\"./movements/RPGM-0.5.movements\",\"./movements/RWPRPGM-0.0.movements\",\"./movements/RWPRPGM-0.5.movements\"}"
param **.ueD2DTx[*].mobilityType "\"BonnMotionMobility\""
param **.usePreconfiguredTxParams false
param *.eNodeB*.numX2Apps 1
param *.eNodeB*.x2App[*].server.localPort "5000 + ancestorIndex(1)"
param *.eNodeB.d2dCapable false
param *.eNodeB.mobility.initFromDisplayString false
param *.eNodeB.mobility.initialX 300m
param *.eNodeB.mobility.initialY 300m
param *.eNodeB.nic.phy.enableD2DCqiReporting true
param *.eNodeB.txPower 19952.62315mw
param *.eNodeB.x2App[0].client.connectAddress "\"eNodeB1%x2ppp0\""
param *.eNodeB1.d2dCapable true
param *.eNodeB1.mobility.initFromDisplayString false
param *.eNodeB1.mobility.initialX 700m
param *.eNodeB1.mobility.initialY 300m
param *.eNodeB1.nic.phy.enableD2DCqiReporting true
param *.eNodeB1.txPower 19952.62315mw
param *.eNodeB1.x2App[0].client.connectAddress "\"eNodeB%x2ppp0\""
param *.extCell[*].bandAllocationType "\"FULL_ALLOC\""
param *.extCell[*].bandUtilization 0.5
param *.extCell[*].txDirection "\"ANISOTROPIC\""
param *.extCell[*].txPower 20
param *.extCell[0].position_x 100m
param *.extCell[0].position_y 600m
param *.extCell[0].txAngle 315
param *.extCell[1].position_x 600m
param *.extCell[1].position_y 600m
param *.extCell[1].txAngle 225
param *.numExtCells 2
param *.numUeCell 0
param *.numUeD2DRx 1
param *.numUeD2DTx 1
param *.ue*.macCellId 1
param *.ue*.masterId 1
param *.ue*.mobility.initFromDisplayString false
param *.ue*[0].macCellId 1
param *.ue*[0].masterId 1
param *.ue*[0].mobility.initFromDisplayString false
param *.ueD2D*.numTcpApps 1
param *.ueD2D*[*].d2dCapable true
param *.ueD2D*[0].d2dCapable false
param *.ueD2D*[0].numTcpApps 1
param *.ueD2DRx[0].mobility.initialX 310m
param *.ueD2DRx[0].mobility.initialY 350m
param *.ueD2DRx[0].tcpApp[*].localPort 1000
param *.ueD2DRx[0].tcpApp[*].typename "\"TCPSinkApp\""
param *.ueD2DTx*.nic.d2dPeerAddresses "\"ueD2DTx[1]\""
param *.ueD2DTx*.tcpApp[*].connectAddress "\"ueD2DTx[0]\""
param *.ueD2DTx*.tcpApp[*].localAddress "\"ueD2DTx\""
param *.ueD2DTx*.tcpApp[*].localPort 1000
param *.ueD2DTx*.tcpApp[*].sendBytes 1GiB
param *.ueD2DTx*.tcpApp[*].typename "\"TCPSessionApp\""
param *.ueD2DTx*.tcpApp[0].active true
param *.ueD2DTx*.tcpApp[0].connectPort 1000
param *.ueD2DTx*.tcpApp[0].tOpen uniform(0.010s,0.1s)
param *.ueD2DTx*.tcpApp[0].tSend uniform(0.15s,0.5s)
param *.ueD2DTx[0].mobility.initialX 290m
param *.ueD2DTx[0].mobility.initialY 350m
param *.ueD2DTx[0].tcpApp[*].localPort 1000
param *.ueD2DTx[0].tcpApp[*].sendBytes 1GiB
param *.ueD2DTx[0].tcpApp[*].typename "\"TCPSessionApp\""
param *.ueD2DTx[0].tcpApp[0].active true
param *.ueD2DTx[0].tcpApp[0].connectAddress "\"ueD2DRx[0]\""
param *.ueD2DTx[0].tcpApp[0].connectPort 1000
param *.ueD2DTx[0].tcpApp[0].localAddress "\"ueD2DTx[0]\""
param *.ueD2DTx[0].tcpApp[0].tOpen uniform(0.010s,0.1s)
param *.ueD2DTx[0].tcpApp[0].tSend uniform(0.15s,0.5s)
param *.ueD2DTx[1].mobility.initialX 690m
param *.ueD2DTx[1].mobility.initialY 250m

vector 8  CAIN.server.ppp[0].queue  queueLength:vector  ETV
attr interpolationmode  sample-hold
attr title  "queue length, vector"
vector 9  CAIN.server.ppp[0].ppp  txState:vector  ETV
attr interpolationmode  sample-hold
attr title  "tx state, vector"
vector 24  CAIN.router.ppp[0].queue  queueLength:vector  ETV
attr interpolationmode  sample-hold
attr title  "queue length, vector"
vector 25  CAIN.router.ppp[0].ppp  txState:vector  ETV
attr interpolationmode  sample-hold
attr title  "tx state, vector"
vector 35  CAIN.router.ppp[1].queue  queueLength:vector  ETV
attr interpolationmode  sample-hold
attr title  "queue length, vector"
vector 36  CAIN.router.ppp[1].ppp  txState:vector  ETV
attr interpolationmode  sample-hold
attr title  "tx state, vector"
vector 56  CAIN.pgw.ppp[0].queue  queueLength:vector  ETV
attr interpolationmode  sample-hold
attr title  "queue length, vector"
vector 57  CAIN.pgw.ppp[0].ppp  txState:vector  ETV
attr interpolationmode  sample-hold
attr title  "tx state, vector"
vector 67  CAIN.pgw.ppp[1].queue  queueLength:vector  ETV
attr interpolationmode  sample-hold
attr title  "queue length, vector"
vector 68  CAIN.pgw.ppp[1].ppp  txState:vector  ETV
attr interpolationmode  sample-hold
attr title  "tx state, vector"
vector 78  CAIN.pgw.pppInterface.queue  queueLength:vector  ETV
attr interpolationmode  sample-hold
attr title  "queue length, vector"
vector 79  CAIN.pgw.pppInterface.ppp  txState:vector  ETV
attr interpolationmode  sample-hold
attr title  "tx state, vector"
vector 120  CAIN.eNodeB.pppIf.queue  queueLength:vector  ETV
attr interpolationmode  sample-hold
attr title  "queue length, vector"
vector 121  CAIN.eNodeB.pppIf.ppp  txState:vector  ETV
attr interpolationmode  sample-hold
attr title  "tx state, vector"
vector 131  CAIN.eNodeB.x2ppp[0].queue  queueLength:vector  ETV
attr interpolationmode  sample-hold
attr title  "queue length, vector"
vector 132  CAIN.eNodeB.x2ppp[0].ppp  txState:vector  ETV
attr interpolationmode  sample-hold
attr title  "tx state, vector"
vector 178  CAIN.eNodeB1.pppIf.queue  queueLength:vector  ETV
attr interpolationmode  sample-hold
attr title  "queue length, vector"
vector 179  CAIN.eNodeB1.pppIf.ppp  txState:vector  ETV
attr interpolationmode  sample-hold
attr title  "tx state, vector"
vector 189  CAIN.eNodeB1.x2ppp[0].queue  queueLength:vector  ETV
attr interpolationmode  sample-hold
attr title  "queue length, vector"
vector 190  CAIN.eNodeB1.x2ppp[0].ppp  txState:vector  ETV
attr interpolationmode  sample-hold
attr title  "tx state, vector"
vector 231  CAIN.ueD2DTx[0].nic.phy  servingCell:vector  ETV
attr source  servingCell
attr title  "ID of the serving eNodeB for the UE, vector"
attr unit  ""
vector 263  CAIN.ueD2DTx[1].nic.phy  servingCell:vector  ETV
attr source  servingCell
attr title  "ID of the serving eNodeB for the UE, vector"
attr unit  ""
vector 295  CAIN.ueD2DTx[2].nic.phy  servingCell:vector  ETV
attr source  servingCell
attr title  "ID of the serving eNodeB for the UE, vector"
attr unit  ""
vector 327  CAIN.ueD2DTx[3].nic.phy  servingCell:vector  ETV
attr source  servingCell
attr title  "ID of the serving eNodeB for the UE, vector"
attr unit  ""
vector 359  CAIN.ueD2DTx[4].nic.phy  servingCell:vector  ETV
attr source  servingCell
attr title  "ID of the serving eNodeB for the UE, vector"
attr unit  ""
vector 391  CAIN.ueD2DTx[5].nic.phy  servingCell:vector  ETV
attr source  servingCell
attr title  "ID of the serving eNodeB for the UE, vector"
attr unit  ""
vector 423  CAIN.ueD2DTx[6].nic.phy  servingCell:vector  ETV
attr source  servingCell
attr title  "ID of the serving eNodeB for the UE, vector"
attr unit  ""
vector 455  CAIN.ueD2DTx[7].nic.phy  servingCell:vector  ETV
attr source  servingCell
attr title  "ID of the serving eNodeB for the UE, vector"
attr unit  ""
vector 487  CAIN.ueD2DTx[8].nic.phy  servingCell:vector  ETV
attr source  servingCell
attr title  "ID of the serving eNodeB for the UE, vector"
attr unit  ""
vector 519  CAIN.ueD2DTx[9].nic.phy  servingCell:vector  ETV
attr source  servingCell
attr title  "ID of the serving eNodeB for the UE, vector"
attr unit  ""
vector 551  CAIN.ueD2DTx[10].nic.phy  servingCell:vector  ETV
attr source  servingCell
attr title  "ID of the serving eNodeB for the UE, vector"
attr unit  ""
vector 583  CAIN.ueD2DTx[11].nic.phy  servingCell:vector  ETV
attr source  servingCell
attr title  "ID of the serving eNodeB for the UE, vector"
attr unit  ""
vector 615  CAIN.ueD2DTx[12].nic.phy  servingCell:vector  ETV
attr source  servingCell
attr title  "ID of the serving eNodeB for the UE, vector"
attr unit  ""
vector 647  CAIN.ueD2DTx[13].nic.phy  servingCell:vector  ETV
attr source  servingCell
attr title  "ID of the serving eNodeB for the UE, vector"
attr unit  ""
vector 679  CAIN.ueD2DTx[14].nic.phy  servingCell:vector  ETV
attr source  servingCell
attr title  "ID of the serving eNodeB for the UE, vector"
attr unit  ""
vector 711  CAIN.ueD2DTx[15].nic.phy  servingCell:vector  ETV
attr source  servingCell
attr title  "ID of the serving eNodeB for the UE, vector"
attr unit  ""
vector 743  CAIN.ueD2DTx[16].nic.phy  servingCell:vector  ETV
attr source  servingCell
attr title  "ID of the serving eNodeB for the UE, vector"
attr unit  ""
vector 775  CAIN.ueD2DTx[17].nic.phy  servingCell:vector  ETV
attr source  servingCell
attr title  "ID of the serving eNodeB for the UE, vector"
attr unit  ""
vector 807  CAIN.ueD2DTx[18].nic.phy  servingCell:vector  ETV
attr source  servingCell
attr title  "ID of the serving eNodeB for the UE, vector"
attr unit  ""
vector 839  CAIN.ueD2DTx[19].nic.phy  servingCell:vector  ETV
attr source  servingCell
attr title  "ID of the serving eNodeB for the UE, vector"
attr unit  ""
vector 871  CAIN.ueD2DTx[20].nic.phy  servingCell:vector  ETV
attr source  servingCell
attr title  "ID of the serving eNodeB for the UE, vector"
attr unit  ""
vector 903  CAIN.ueD2DTx[21].nic.phy  servingCell:vector  ETV
attr source  servingCell
attr title  "ID of the serving eNodeB for the UE, vector"
attr unit  ""
vector 935  CAIN.ueD2DTx[22].nic.phy  servingCell:vector  ETV
attr source  servingCell
attr title  "ID of the serving eNodeB for the UE, vector"
attr unit  ""
vector 967  CAIN.ueD2DTx[23].nic.phy  servingCell:vector  ETV
attr source  servingCell
attr title  "ID of the serving eNodeB for the UE, vector"
attr unit  ""
vector 999  CAIN.ueD2DTx[24].nic.phy  servingCell:vector  ETV
attr source  servingCell
attr title  "ID of the serving eNodeB for the UE, vector"
attr unit  ""
vector 1023  CAIN.eNodeB.sctp  "Throughput of Association 3"  ETV
vector 1045  CAIN.eNodeB1.sctp  "Throughput of Association 4"  ETV
vector 1067  CAIN.eNodeB.sctp  "Throughput of Association 1"  ETV
vector 1087  CAIN.eNodeB.sctp  "Fast Recovery State 1:10.0.5.2"  ETV
vector 1116  CAIN.eNodeB1.sctp  "Throughput of Association 2"  ETV
vector 1136  CAIN.eNodeB1.sctp  "Fast Recovery State 2:10.0.5.1"  ETV
vector 128  CAIN.eNodeB.x2ppp[0].queue  rcvdPk:vector(packetBytes)  ETV
attr interpolationmode  none
attr title  "received packets, vector(packetBytes)"
vector 130  CAIN.eNodeB.x2ppp[0].queue  queueingTime:vector  ETV
attr interpolationmode  none
attr title  "queueing time, vector"
vector 186  CAIN.eNodeB1.x2ppp[0].queue  rcvdPk:vector(packetBytes)  ETV
attr interpolationmode  none
attr title  "received packets, vector(packetBytes)"
vector 188  CAIN.eNodeB1.x2ppp[0].queue  queueingTime:vector  ETV
attr interpolationmode  none
attr title  "queueing time, vector"
vector 137  CAIN.eNodeB.x2ppp[0].ppp  rcvdPkFromHL:vector(packetBytes)  ETV
attr interpolationmode  none
attr source  packetReceivedFromUpper
attr title  "packets received from higher layer, vector(packetBytes)"
vector 133  CAIN.eNodeB.x2ppp[0].ppp  txPk:vector(packetBytes)  ETV
attr interpolationmode  none
attr source  packetSentToLower
attr title  "packets transmitted, vector(packetBytes)"
vector 195  CAIN.eNodeB1.x2ppp[0].ppp  rcvdPkFromHL:vector(packetBytes)  ETV
attr interpolationmode  none
attr source  packetReceivedFromUpper
attr title  "packets received from higher layer, vector(packetBytes)"
vector 191  CAIN.eNodeB1.x2ppp[0].ppp  txPk:vector(packetBytes)  ETV
attr interpolationmode  none
attr source  packetSentToLower
attr title  "packets transmitted, vector(packetBytes)"
vector 192  CAIN.eNodeB1.x2ppp[0].ppp  rxPkOk:vector(packetBytes)  ETV
attr interpolationmode  none
attr source  rxPkOk
attr title  "packets received OK, vector(packetBytes)"
vector 196  CAIN.eNodeB1.x2ppp[0].ppp  passedUpPk:vector(packetBytes)  ETV
attr interpolationmode  none
attr source  packetSentToUpper
attr title  "packets passed to higher layer, vector(packetBytes)"
vector 134  CAIN.eNodeB.x2ppp[0].ppp  rxPkOk:vector(packetBytes)  ETV
attr interpolationmode  none
attr source  rxPkOk
attr title  "packets received OK, vector(packetBytes)"
vector 138  CAIN.eNodeB.x2ppp[0].ppp  passedUpPk:vector(packetBytes)  ETV
attr interpolationmode  none
attr source  packetSentToUpper
attr title  "packets passed to higher layer, vector(packetBytes)"
vector 1165  CAIN.eNodeB1.sctp  "Throughput of Association 4"  ETV
vector 1042  CAIN.eNodeB1.sctp  "Peer Rwnd 4"  ETV
vector 1185  CAIN.eNodeB1.sctp  "Fast Recovery State 5:10.0.4.1"  ETV
vector 1212  CAIN.eNodeB1.sctp  "Fast Recovery State 5:10.0.2.2"  ETV
vector 1239  CAIN.eNodeB1.sctp  "Fast Recovery State 5:10.0.5.1"  ETV
vector 1268  CAIN.eNodeB.sctp  "Throughput of Association 3"  ETV
vector 1020  CAIN.eNodeB.sctp  "Peer Rwnd 3"  ETV
vector 1288  CAIN.eNodeB.sctp  "Fast Recovery State 6:10.0.4.2"  ETV
vector 1315  CAIN.eNodeB.sctp  "Fast Recovery State 6:10.0.3.2"  ETV
vector 1342  CAIN.eNodeB.sctp  "Fast Recovery State 6:10.0.5.2"  ETV
vector 1064  CAIN.eNodeB.sctp  "Peer Rwnd 1"  ETV
vector 1369  CAIN.eNodeB.sctp  "Fast Recovery State 1:10.0.4.2"  ETV
vector 1396  CAIN.eNodeB.sctp  "Fast Recovery State 1:10.0.3.2"  ETV
vector 1113  CAIN.eNodeB1.sctp  "Peer Rwnd 2"  ETV
vector 1423  CAIN.eNodeB1.sctp  "Fast Recovery State 2:10.0.4.1"  ETV
vector 1450  CAIN.eNodeB1.sctp  "Fast Recovery State 2:10.0.2.2"  ETV
vector 1195  CAIN.eNodeB1.sctp  "Slow Start Threshold 5:10.0.2.2"  ETV
vector 1196  CAIN.eNodeB1.sctp  "Congestion Window 5:10.0.2.2"  ETV
vector 1197  CAIN.eNodeB1.sctp  "Bandwidth 5:10.0.2.2"  ETV
vector 1200  CAIN.eNodeB1.sctp  "HB Sent 5:10.0.2.2"  ETV
vector 1193  CAIN.eNodeB1.sctp  "RTO 5:10.0.2.2"  ETV
vector 1168  CAIN.eNodeB1.sctp  "Slow Start Threshold 5:10.0.4.1"  ETV
vector 1169  CAIN.eNodeB1.sctp  "Congestion Window 5:10.0.4.1"  ETV
vector 1170  CAIN.eNodeB1.sctp  "Bandwidth 5:10.0.4.1"  ETV
vector 1173  CAIN.eNodeB1.sctp  "HB Sent 5:10.0.4.1"  ETV
vector 1166  CAIN.eNodeB1.sctp  "RTO 5:10.0.4.1"  ETV
vector 1222  CAIN.eNodeB1.sctp  "Slow Start Threshold 5:10.0.5.1"  ETV
vector 1223  CAIN.eNodeB1.sctp  "Congestion Window 5:10.0.5.1"  ETV
vector 1224  CAIN.eNodeB1.sctp  "Bandwidth 5:10.0.5.1"  ETV
vector 1220  CAIN.eNodeB1.sctp  "RTO 5:10.0.5.1"  ETV
vector 1298  CAIN.eNodeB.sctp  "Slow Start Threshold 6:10.0.3.2"  ETV
vector 1299  CAIN.eNodeB.sctp  "Congestion Window 6:10.0.3.2"  ETV
vector 1300  CAIN.eNodeB.sctp  "Bandwidth 6:10.0.3.2"  ETV
vector 1303  CAIN.eNodeB.sctp  "HB Sent 6:10.0.3.2"  ETV
vector 1296  CAIN.eNodeB.sctp  "RTO 6:10.0.3.2"  ETV
vector 1271  CAIN.eNodeB.sctp  "Slow Start Threshold 6:10.0.4.2"  ETV
vector 1272  CAIN.eNodeB.sctp  "Congestion Window 6:10.0.4.2"  ETV
vector 1273  CAIN.eNodeB.sctp  "Bandwidth 6:10.0.4.2"  ETV
vector 1276  CAIN.eNodeB.sctp  "HB Sent 6:10.0.4.2"  ETV
vector 1269  CAIN.eNodeB.sctp  "RTO 6:10.0.4.2"  ETV
vector 1325  CAIN.eNodeB.sctp  "Slow Start Threshold 6:10.0.5.2"  ETV
vector 1326  CAIN.eNodeB.sctp  "Congestion Window 6:10.0.5.2"  ETV
vector 1327  CAIN.eNodeB.sctp  "Bandwidth 6:10.0.5.2"  ETV
vector 1323  CAIN.eNodeB.sctp  "RTO 6:10.0.5.2"  ETV
vector 1076  CAIN.eNodeB.sctp  "HB ACK Sent 1:10.0.5.2"  ETV
vector 1077  CAIN.eNodeB.sctp  "HB Received 1:10.0.5.2"  ETV
vector 1125  CAIN.eNodeB1.sctp  "HB ACK Sent 2:10.0.5.1"  ETV
vector 1126  CAIN.eNodeB1.sctp  "HB Received 2:10.0.5.1"  ETV
vector 1379  CAIN.eNodeB.sctp  "Slow Start Threshold 1:10.0.3.2"  ETV
vector 1380  CAIN.eNodeB.sctp  "Congestion Window 1:10.0.3.2"  ETV
vector 1381  CAIN.eNodeB.sctp  "Bandwidth 1:10.0.3.2"  ETV
vector 1384  CAIN.eNodeB.sctp  "HB Sent 1:10.0.3.2"  ETV
vector 1377  CAIN.eNodeB.sctp  "RTO 1:10.0.3.2"  ETV
vector 1352  CAIN.eNodeB.sctp  "Slow Start Threshold 1:10.0.4.2"  ETV
vector 1353  CAIN.eNodeB.sctp  "Congestion Window 1:10.0.4.2"  ETV
vector 1354  CAIN.eNodeB.sctp  "Bandwidth 1:10.0.4.2"  ETV
vector 1357  CAIN.eNodeB.sctp  "HB Sent 1:10.0.4.2"  ETV
vector 1350  CAIN.eNodeB.sctp  "RTO 1:10.0.4.2"  ETV
vector 1070  CAIN.eNodeB.sctp  "Slow Start Threshold 1:10.0.5.2"  ETV
vector 1071  CAIN.eNodeB.sctp  "Congestion Window 1:10.0.5.2"  ETV
vector 1072  CAIN.eNodeB.sctp  "Bandwidth 1:10.0.5.2"  ETV
vector 1068  CAIN.eNodeB.sctp  "RTO 1:10.0.5.2"  ETV
vector 1433  CAIN.eNodeB1.sctp  "Slow Start Threshold 2:10.0.2.2"  ETV
vector 1434  CAIN.eNodeB1.sctp  "Congestion Window 2:10.0.2.2"  ETV
vector 1435  CAIN.eNodeB1.sctp  "Bandwidth 2:10.0.2.2"  ETV
vector 1438  CAIN.eNodeB1.sctp  "HB Sent 2:10.0.2.2"  ETV
vector 1431  CAIN.eNodeB1.sctp  "RTO 2:10.0.2.2"  ETV
vector 1406  CAIN.eNodeB1.sctp  "Slow Start Threshold 2:10.0.4.1"  ETV
vector 1407  CAIN.eNodeB1.sctp  "Congestion Window 2:10.0.4.1"  ETV
vector 1408  CAIN.eNodeB1.sctp  "Bandwidth 2:10.0.4.1"  ETV
vector 1411  CAIN.eNodeB1.sctp  "HB Sent 2:10.0.4.1"  ETV
vector 1404  CAIN.eNodeB1.sctp  "RTO 2:10.0.4.1"  ETV
vector 1119  CAIN.eNodeB1.sctp  "Slow Start Threshold 2:10.0.5.1"  ETV
vector 1120  CAIN.eNodeB1.sctp  "Congestion Window 2:10.0.5.1"  ETV
vector 1121  CAIN.eNodeB1.sctp  "Bandwidth 2:10.0.5.1"  ETV
vector 1117  CAIN.eNodeB1.sctp  "RTO 2:10.0.5.1"  ETV
vector 1333  CAIN.eNodeB.sctp  "HB ACK Received 6:10.0.5.2"  ETV
vector 1324  CAIN.eNodeB.sctp  "RTT 6:10.0.5.2"  ETV
vector 1230  CAIN.eNodeB1.sctp  "HB ACK Received 5:10.0.5.1"  ETV
vector 1221  CAIN.eNodeB1.sctp  "RTT 5:10.0.5.1"  ETV
vector 1331  CAIN.eNodeB.sctp  "HB ACK Sent 6:10.0.5.2"  ETV
vector 1332  CAIN.eNodeB.sctp  "HB Received 6:10.0.5.2"  ETV
vector 1228  CAIN.eNodeB1.sctp  "HB ACK Sent 5:10.0.5.1"  ETV
vector 1229  CAIN.eNodeB1.sctp  "HB Received 5:10.0.5.1"  ETV
vector 1127  CAIN.eNodeB1.sctp  "HB ACK Received 2:10.0.5.1"  ETV
vector 1118  CAIN.eNodeB1.sctp  "RTT 2:10.0.5.1"  ETV
vector 1078  CAIN.eNodeB.sctp  "HB ACK Received 1:10.0.5.2"  ETV
vector 1069  CAIN.eNodeB.sctp  "RTT 1:10.0.5.2"  ETV
vector 96  CAIN.eNodeB.nic.mac  receivedPacketFromLowerLayer:vector(packetBytes)  ETV
attr interpolationmode  none
attr source  receivedPacketFromLowerLayer
vector 1465  CAIN.eNodeB.sctp  "SendQueue of Association 6"  ETV
vector 1328  CAIN.eNodeB.sctp  "TSN Sent 6:10.0.5.2"  ETV
vector 1335  CAIN.eNodeB.sctp  "Outstanding Bytes 6:10.0.5.2"  ETV
vector 1008  CAIN.eNodeB.sctp  "Outstanding Bytes 3:Total"  ETV
vector 1334  CAIN.eNodeB.sctp  "Queued Sent Bytes 6:10.0.5.2"  ETV
vector 1007  CAIN.eNodeB.sctp  "Queued Sent Bytes 3:Total"  ETV
vector 1123  CAIN.eNodeB1.sctp  "TSN Received 2:10.0.5.1"  ETV
vector 1099  CAIN.eNodeB1.sctp  "Queued Received Bytes 2:Total"  ETV
vector 1095  CAIN.eNodeB1.sctp  "Advertised Receiver Window 2"  ETV
vector 1104  CAIN.eNodeB1.sctp  "Number of Total Gap Blocks Stored 2"  ETV
vector 1105  CAIN.eNodeB1.sctp  "Number of Revokable Gap Blocks Stored 2"  ETV
vector 1106  CAIN.eNodeB1.sctp  "Number of Non-Revokable Gap Blocks Stored 2"  ETV
vector 1107  CAIN.eNodeB1.sctp  "Number of Duplicate TSNs Stored 2"  ETV
vector 1111  CAIN.eNodeB1.sctp  "Length of SACK Sent 2"  ETV
vector 1108  CAIN.eNodeB1.sctp  "Number of Revokable Gap Blocks Sent 2"  ETV
vector 1109  CAIN.eNodeB1.sctp  "Number of Non-Revokable Gap Blocks Sent 2"  ETV
vector 1110  CAIN.eNodeB1.sctp  "Number of Duplicate TSNs Sent 2"  ETV
vector 1115  CAIN.eNodeB1.sctp  "End to End Delay of Association 2"  ETV
vector 199  CAIN.eNodeB1.x2App[0].client  rcvdPk:vector(packetBytes)  ETV
attr interpolationmode  none
attr source  rcvdPk
attr title  "packets received, vector(packetBytes)"
vector 1464  CAIN.eNodeB.sctp  "Number of Gap Blocks in Last SACK of Association 6"  ETV
vector 1009  CAIN.eNodeB.sctp  "Number of Revokable Gap Blocks in SACK 3"  ETV
vector 1010  CAIN.eNodeB.sctp  "Number of Non-Revokable Gap Blocks in SACK 3"  ETV
vector 1345  CAIN.eNodeB.sctp  "TSN Acked CumAck 6:10.0.5.2"  ETV
vector 1311  CAIN.eNodeB.sctp  "Number of Gap Acked Chunks in Last SACK 6:10.0.3.2"  ETV
vector 1312  CAIN.eNodeB.sctp  "Number of Non-Revokable Gap Acked Chunks in Last SACK 6:10.0.3.2"  ETV
vector 1313  CAIN.eNodeB.sctp  "Number of Gap Missed Chunks in Last SACK 6:10.0.3.2"  ETV
vector 1284  CAIN.eNodeB.sctp  "Number of Gap Acked Chunks in Last SACK 6:10.0.4.2"  ETV
vector 1285  CAIN.eNodeB.sctp  "Number of Non-Revokable Gap Acked Chunks in Last SACK 6:10.0.4.2"  ETV
vector 1286  CAIN.eNodeB.sctp  "Number of Gap Missed Chunks in Last SACK 6:10.0.4.2"  ETV
vector 1338  CAIN.eNodeB.sctp  "Number of Gap Acked Chunks in Last SACK 6:10.0.5.2"  ETV
vector 1339  CAIN.eNodeB.sctp  "Number of Non-Revokable Gap Acked Chunks in Last SACK 6:10.0.5.2"  ETV
vector 1340  CAIN.eNodeB.sctp  "Number of Gap Missed Chunks in Last SACK 6:10.0.5.2"  ETV
vector 1019  CAIN.eNodeB.sctp  "Arwnd in Last SACK 3"  ETV
vector 1347  CAIN.eNodeB.sctp  "TSN PseudoCumAck 6:10.0.5.2"  ETV
vector 1348  CAIN.eNodeB.sctp  "TSN RTXPseudoCumAck 6:10.0.5.2"  ETV
vector 1341  CAIN.eNodeB.sctp  "Partial Bytes Acked 6:10.0.5.2"  ETV
vector 1493  CAIN.ueD2DTx[13].tcp  tcpRcvQueueBytes  ETV
vector 1480  CAIN.ueD2DTx[13].tcp  "advertised window"  ETV
vector 1479  CAIN.ueD2DTx[13].tcp  "receive window"  ETV
vector 1482  CAIN.ueD2DTx[13].tcp  "sent ack"  ETV
vector 621  CAIN.ueD2DTx[13].nic.pdcpRrc  receivedPacketFromUpperLayer:vector(packetBytes)  ETV
attr interpolationmode  none
attr source  receivedPacketFromUpperLayer
vector 624  CAIN.ueD2DTx[13].nic.pdcpRrc  sentPacketToLowerLayer:vector(packetBytes)  ETV
attr interpolationmode  none
attr source  sentPacketToLowerLayer
vector 625  CAIN.ueD2DTx[13].nic.mac  receivedPacketFromUpperLayer:vector(packetBytes)  ETV
attr interpolationmode  none
attr source  receivedPacketFromUpperLayer
vector 635  CAIN.ueD2DTx[13].nic.mac  CainHopMessageSent:vector  ETV
attr interpolationmode  none
attr title  "# of Sent CAIN hop message, vector"
vector 628  CAIN.ueD2DTx[13].nic.mac  sentPacketToLowerLayer:vector(packetBytes)  ETV
attr interpolationmode  none
attr source  sentPacketToLowerLayer
vector 1517  CAIN.ueD2DTx[19].tcp  tcpRcvQueueBytes  ETV
vector 1504  CAIN.ueD2DTx[19].tcp  "advertised window"  ETV
vector 1503  CAIN.ueD2DTx[19].tcp  "receive window"  ETV
vector 1506  CAIN.ueD2DTx[19].tcp  "sent ack"  ETV
vector 813  CAIN.ueD2DTx[19].nic.pdcpRrc  receivedPacketFromUpperLayer:vector(packetBytes)  ETV
attr interpolationmode  none
attr source  receivedPacketFromUpperLayer
vector 816  CAIN.ueD2DTx[19].nic.pdcpRrc  sentPacketToLowerLayer:vector(packetBytes)  ETV
attr interpolationmode  none
attr source  sentPacketToLowerLayer
vector 817  CAIN.ueD2DTx[19].nic.mac  receivedPacketFromUpperLayer:vector(packetBytes)  ETV
attr interpolationmode  none
attr source  receivedPacketFromUpperLayer
vector 1541  CAIN.ueD2DTx[12].tcp  tcpRcvQueueBytes  ETV
vector 1528  CAIN.ueD2DTx[12].tcp  "advertised window"  ETV
vector 1527  CAIN.ueD2DTx[12].tcp  "receive window"  ETV
vector 1530  CAIN.ueD2DTx[12].tcp  "sent ack"  ETV
vector 589  CAIN.ueD2DTx[12].nic.pdcpRrc  receivedPacketFromUpperLayer:vector(packetBytes)  ETV
attr interpolationmode  none
attr source  receivedPacketFromUpperLayer
vector 592  CAIN.ueD2DTx[12].nic.pdcpRrc  sentPacketToLowerLayer:vector(packetBytes)  ETV
attr interpolationmode  none
attr source  sentPacketToLowerLayer
vector 593  CAIN.ueD2DTx[12].nic.mac  receivedPacketFromUpperLayer:vector(packetBytes)  ETV
attr interpolationmode  none
attr source  receivedPacketFromUpperLayer
vector 603  CAIN.ueD2DTx[12].nic.mac  CainHopMessageSent:vector  ETV
attr interpolationmode  none
attr title  "# of Sent CAIN hop message, vector"
vector 596  CAIN.ueD2DTx[12].nic.mac  sentPacketToLowerLayer:vector(packetBytes)  ETV
attr interpolationmode  none
attr source  sentPacketToLowerLayer
vector 820  CAIN.ueD2DTx[19].nic.mac  sentPacketToLowerLayer:vector(packetBytes)  ETV
attr interpolationmode  none
attr source  sentPacketToLowerLayer
vector 530  CAIN.ueD2DTx[10].nic.mac  receivedPacketFromLowerLayer:vector(packetBytes)  ETV
attr interpolationmode  none
attr source  receivedPacketFromLowerLayer
vector 532  CAIN.ueD2DTx[10].nic.mac  sentPacketToLowerLayer:vector(packetBytes)  ETV
attr interpolationmode  none
attr source  sentPacketToLowerLayer
vector 274  CAIN.ueD2DTx[2].nic.mac  receivedPacketFromLowerLayer:vector(packetBytes)  ETV
attr interpolationmode  none
attr source  receivedPacketFromLowerLayer
vector 276  CAIN.ueD2DTx[2].nic.mac  sentPacketToLowerLayer:vector(packetBytes)  ETV
attr interpolationmode  none
attr source  sentPacketToLowerLayer
vector 111  CAIN.eNodeB.nic.mac  racpkt:vector  ETV
attr interpolationmode  none
attr title  "eNB received racpkt message, vector"
vector 112  CAIN.eNodeB.nic.mac  racDistanceSignal:vector  ETV
attr interpolationmode  none
attr title  "Rac distance to enb, vector"
vector 113  CAIN.eNodeB.nic.mac  racServedDevsSignal:vector  ETV
attr interpolationmode  none
attr title  "# of devices served on rac arriavall, vector"
vector 98  CAIN.eNodeB.nic.mac  sentPacketToLowerLayer:vector(packetBytes)  ETV
attr interpolationmode  none
attr source  sentPacketToLowerLayer
vector 722  CAIN.ueD2DTx[16].nic.mac  receivedPacketFromLowerLayer:vector(packetBytes)  ETV
attr interpolationmode  none
attr source  receivedPacketFromLowerLayer
vector 724  CAIN.ueD2DTx[16].nic.mac  sentPacketToLowerLayer:vector(packetBytes)  ETV
attr interpolationmode  none
attr source  sentPacketToLowerLayer
vector 338  CAIN.ueD2DTx[4].nic.mac  receivedPacketFromLowerLayer:vector(packetBytes)  ETV
attr interpolationmode  none
attr source  receivedPacketFromLowerLayer
vector 340  CAIN.ueD2DTx[4].nic.mac  sentPacketToLowerLayer:vector(packetBytes)  ETV
attr interpolationmode  none
attr source  sentPacketToLowerLayer
vector 818  CAIN.ueD2DTx[19].nic.mac  receivedPacketFromLowerLayer:vector(packetBytes)  ETV
attr interpolationmode  none
attr source  receivedPacketFromLowerLayer
vector 106  CAIN.eNodeB.nic.mac  DistanceSignal:vector  ETV
attr interpolationmode  none
attr title  "Distance to enb, vector"
vector 101  CAIN.eNodeB.nic.mac  CainHopMessage:vector  ETV
attr interpolationmode  none
attr title  "eNB received CAIN hop message, vector"
vector 729  CAIN.ueD2DTx[16].nic.mac  DropedHopMessage:vector  ETV
attr interpolationmode  none
attr title  "Droped Hop CAIN message due to RB not available, vector"
vector 819  CAIN.ueD2DTx[19].nic.mac  sentPacketToUpperLayer:vector(packetBytes)  ETV
attr interpolationmode  none
attr source  sentPacketToUpperLayer
vector 345  CAIN.ueD2DTx[4].nic.mac  DropedHopMessage:vector  ETV
attr interpolationmode  none
attr title  "Droped Hop CAIN message due to RB not available, vector"
vector 115  CAIN.eNodeB.nic.phy  averageCqiUlvect:vector  ETV
attr source  averageCqiUlvect
attr title  "Average Cqi reported in UL, vector"
attr unit  cqi
vector 1565  CAIN.ueD2DTx[11].tcp  tcpRcvQueueBytes  ETV
vector 1552  CAIN.ueD2DTx[11].tcp  "advertised window"  ETV
vector 1551  CAIN.ueD2DTx[11].tcp  "receive window"  ETV
vector 1554  CAIN.ueD2DTx[11].tcp  "sent ack"  ETV
vector 557  CAIN.ueD2DTx[11].nic.pdcpRrc  receivedPacketFromUpperLayer:vector(packetBytes)  ETV
attr interpolationmode  none
attr source  receivedPacketFromUpperLayer
vector 560  CAIN.ueD2DTx[11].nic.pdcpRrc  sentPacketToLowerLayer:vector(packetBytes)  ETV
attr interpolationmode  none
attr source  sentPacketToLowerLayer
vector 561  CAIN.ueD2DTx[11].nic.mac  receivedPacketFromUpperLayer:vector(packetBytes)  ETV
attr interpolationmode  none
attr source  receivedPacketFromUpperLayer
vector 97  CAIN.eNodeB.nic.mac  sentPacketToUpperLayer:vector(packetBytes)  ETV
attr interpolationmode  none
attr source  sentPacketToUpperLayer
vector 99  CAIN.eNodeB.nic.mac  measuredItbs:vector  ETV
attr source  measuredItbs
attr title  "TBS index, vector"
attr unit  ""
vector 92  CAIN.eNodeB.nic.pdcpRrc  receivedPacketFromLowerLayer:vector(packetBytes)  ETV
attr interpolationmode  none
attr source  receivedPacketFromLowerLayer
vector 93  CAIN.eNodeB.nic.pdcpRrc  sentPacketToUpperLayer:vector(packetBytes)  ETV
attr interpolationmode  none
attr source  sentPacketToUpperLayer
vector 86  CAIN.eNodeB.udp  sentPk:vector(packetBytes)  ETV
attr interpolationmode  none
attr source  sentPk
attr title  "packets sent, vector(packetBytes)"
vector 564  CAIN.ueD2DTx[11].nic.mac  sentPacketToLowerLayer:vector(packetBytes)  ETV
attr interpolationmode  none
attr source  sentPacketToLowerLayer
vector 145  CAIN.eNodeB1.udp  rcvdPk:vector(packetBytes)  ETV
attr interpolationmode  none
attr source  rcvdPk
attr title  "packets received, vector(packetBytes)"
vector 146  CAIN.eNodeB1.udp  passedUpPk:vector(count)  ETV
attr interpolationmode  none
attr title  "packets passed up, vector(count)"
vector 562  CAIN.ueD2DTx[11].nic.mac  receivedPacketFromLowerLayer:vector(packetBytes)  ETV
attr interpolationmode  none
attr source  receivedPacketFromLowerLayer
vector 1589  CAIN.ueD2DTx[7].tcp  tcpRcvQueueBytes  ETV
vector 1576  CAIN.ueD2DTx[7].tcp  "advertised window"  ETV
vector 1575  CAIN.ueD2DTx[7].tcp  "receive window"  ETV
vector 1578  CAIN.ueD2DTx[7].tcp  "sent ack"  ETV
vector 429  CAIN.ueD2DTx[7].nic.pdcpRrc  receivedPacketFromUpperLayer:vector(packetBytes)  ETV
attr interpolationmode  none
attr source  receivedPacketFromUpperLayer
vector 432  CAIN.ueD2DTx[7].nic.pdcpRrc  sentPacketToLowerLayer:vector(packetBytes)  ETV
attr interpolationmode  none
attr source  sentPacketToLowerLayer
vector 433  CAIN.ueD2DTx[7].nic.mac  receivedPacketFromUpperLayer:vector(packetBytes)  ETV
attr interpolationmode  none
attr source  receivedPacketFromUpperLayer
vector 436  CAIN.ueD2DTx[7].nic.mac  sentPacketToLowerLayer:vector(packetBytes)  ETV
attr interpolationmode  none
attr source  sentPacketToLowerLayer
vector 1613  CAIN.ueD2DTx[6].tcp  tcpRcvQueueBytes  ETV
vector 1600  CAIN.ueD2DTx[6].tcp  "advertised window"  ETV
vector 1599  CAIN.ueD2DTx[6].tcp  "receive window"  ETV
vector 1602  CAIN.ueD2DTx[6].tcp  "sent ack"  ETV
vector 397  CAIN.ueD2DTx[6].nic.pdcpRrc  receivedPacketFromUpperLayer:vector(packetBytes)  ETV
attr interpolationmode  none
attr source  receivedPacketFromUpperLayer
vector 400  CAIN.ueD2DTx[6].nic.pdcpRrc  sentPacketToLowerLayer:vector(packetBytes)  ETV
attr interpolationmode  none
attr source  sentPacketToLowerLayer
vector 401  CAIN.ueD2DTx[6].nic.mac  receivedPacketFromUpperLayer:vector(packetBytes)  ETV
attr interpolationmode  none
attr source  receivedPacketFromUpperLayer
vector 411  CAIN.ueD2DTx[6].nic.mac  CainHopMessageSent:vector  ETV
attr interpolationmode  none
attr title  "# of Sent CAIN hop message, vector"
vector 404  CAIN.ueD2DTx[6].nic.mac  sentPacketToLowerLayer:vector(packetBytes)  ETV
attr interpolationmode  none
attr source  sentPacketToLowerLayer
vector 563  CAIN.ueD2DTx[11].nic.mac  sentPacketToUpperLayer:vector(packetBytes)  ETV
attr interpolationmode  none
attr source  sentPacketToUpperLayer
vector 1637  CAIN.ueD2DTx[20].tcp  tcpRcvQueueBytes  ETV
vector 1624  CAIN.ueD2DTx[20].tcp  "advertised window"  ETV
vector 1623  CAIN.ueD2DTx[20].tcp  "receive window"  ETV
vector 1626  CAIN.ueD2DTx[20].tcp  "sent ack"  ETV
vector 845  CAIN.ueD2DTx[20].nic.pdcpRrc  receivedPacketFromUpperLayer:vector(packetBytes)  ETV
attr interpolationmode  none
attr source  receivedPacketFromUpperLayer
vector 848  CAIN.ueD2DTx[20].nic.pdcpRrc  sentPacketToLowerLayer:vector(packetBytes)  ETV
attr interpolationmode  none
attr source  sentPacketToLowerLayer
vector 849  CAIN.ueD2DTx[20].nic.mac  receivedPacketFromUpperLayer:vector(packetBytes)  ETV
attr interpolationmode  none
attr source  receivedPacketFromUpperLayer
vector 859  CAIN.ueD2DTx[20].nic.mac  CainHopMessageSent:vector  ETV
attr interpolationmode  none
attr title  "# of Sent CAIN hop message, vector"
vector 852  CAIN.ueD2DTx[20].nic.mac  sentPacketToLowerLayer:vector(packetBytes)  ETV
attr interpolationmode  none
attr source  sentPacketToLowerLayer
vector 914  CAIN.ueD2DTx[22].nic.mac  receivedPacketFromLowerLayer:vector(packetBytes)  ETV
attr interpolationmode  none
attr source  receivedPacketFromLowerLayer
vector 916  CAIN.ueD2DTx[22].nic.mac  sentPacketToLowerLayer:vector(packetBytes)  ETV
attr interpolationmode  none
attr source  sentPacketToLowerLayer
vector 434  CAIN.ueD2DTx[7].nic.mac  receivedPacketFromLowerLayer:vector(packetBytes)  ETV
attr interpolationmode  none
attr source  receivedPacketFromLowerLayer
vector 498  CAIN.ueD2DTx[9].nic.mac  receivedPacketFromLowerLayer:vector(packetBytes)  ETV
attr interpolationmode  none
attr source  receivedPacketFromLowerLayer
vector 500  CAIN.ueD2DTx[9].nic.mac  sentPacketToLowerLayer:vector(packetBytes)  ETV
attr interpolationmode  none
attr source  sentPacketToLowerLayer
vector 435  CAIN.ueD2DTx[7].nic.mac  sentPacketToUpperLayer:vector(packetBytes)  ETV
attr interpolationmode  none
attr source  sentPacketToUpperLayer
vector 505  CAIN.ueD2DTx[9].nic.mac  DropedHopMessage:vector  ETV
attr interpolationmode  none
attr title  "Droped Hop CAIN message due to RB not available, vector"
vector 1661  CAIN.ueD2DTx[2].tcp  tcpRcvQueueBytes  ETV
vector 1648  CAIN.ueD2DTx[2].tcp  "advertised window"  ETV
vector 1647  CAIN.ueD2DTx[2].tcp  "receive window"  ETV
vector 1650  CAIN.ueD2DTx[2].tcp  "sent ack"  ETV
vector 269  CAIN.ueD2DTx[2].nic.pdcpRrc  receivedPacketFromUpperLayer:vector(packetBytes)  ETV
attr interpolationmode  none
attr source  receivedPacketFromUpperLayer
vector 272  CAIN.ueD2DTx[2].nic.pdcpRrc  sentPacketToLowerLayer:vector(packetBytes)  ETV
attr interpolationmode  none
attr source  sentPacketToLowerLayer
vector 273  CAIN.ueD2DTx[2].nic.mac  receivedPacketFromUpperLayer:vector(packetBytes)  ETV
attr interpolationmode  none
attr source  receivedPacketFromUpperLayer
vector 283  CAIN.ueD2DTx[2].nic.mac  CainHopMessageSent:vector  ETV
attr interpolationmode  none
attr title  "# of Sent CAIN hop message, vector"
vector 242  CAIN.ueD2DTx[1].nic.mac  receivedPacketFromLowerLayer:vector(packetBytes)  ETV
attr interpolationmode  none
attr source  receivedPacketFromLowerLayer
vector 244  CAIN.ueD2DTx[1].nic.mac  sentPacketToLowerLayer:vector(packetBytes)  ETV
attr interpolationmode  none
attr source  sentPacketToLowerLayer
vector 1685  CAIN.ueD2DTx[10].tcp  tcpRcvQueueBytes  ETV
vector 1672  CAIN.ueD2DTx[10].tcp  "advertised window"  ETV
vector 1671  CAIN.ueD2DTx[10].tcp  "receive window"  ETV
vector 1674  CAIN.ueD2DTx[10].tcp  "sent ack"  ETV
vector 525  CAIN.ueD2DTx[10].nic.pdcpRrc  receivedPacketFromUpperLayer:vector(packetBytes)  ETV
attr interpolationmode  none
attr source  receivedPacketFromUpperLayer
vector 528  CAIN.ueD2DTx[10].nic.pdcpRrc  sentPacketToLowerLayer:vector(packetBytes)  ETV
attr interpolationmode  none
attr source  sentPacketToLowerLayer
vector 529  CAIN.ueD2DTx[10].nic.mac  receivedPacketFromUpperLayer:vector(packetBytes)  ETV
attr interpolationmode  none
attr source  receivedPacketFromUpperLayer
vector 1709  CAIN.ueD2DTx[14].tcp  tcpRcvQueueBytes  ETV
vector 1696  CAIN.ueD2DTx[14].tcp  "advertised window"  ETV
vector 1695  CAIN.ueD2DTx[14].tcp  "receive window"  ETV
vector 1698  CAIN.ueD2DTx[14].tcp  "sent ack"  ETV
vector 653  CAIN.ueD2DTx[14].nic.pdcpRrc  receivedPacketFromUpperLayer:vector(packetBytes)  ETV
attr interpolationmode  none
attr source  receivedPacketFromUpperLayer
vector 656  CAIN.ueD2DTx[14].nic.pdcpRrc  sentPacketToLowerLayer:vector(packetBytes)  ETV
attr interpolationmode  none
attr source  sentPacketToLowerLayer
vector 657  CAIN.ueD2DTx[14].nic.mac  receivedPacketFromUpperLayer:vector(packetBytes)  ETV
attr interpolationmode  none
attr source  receivedPacketFromUpperLayer
vector 538  CAIN.ueD2DTx[10].nic.mac  CainMessageSent:vector  ETV
attr interpolationmode  none
attr title  "# of Sent CAIN message, vector"
vector 667  CAIN.ueD2DTx[14].nic.mac  CainHopMessageSent:vector  ETV
attr interpolationmode  none
attr title  "# of Sent CAIN hop message, vector"
vector 660  CAIN.ueD2DTx[14].nic.mac  sentPacketToLowerLayer:vector(packetBytes)  ETV
attr interpolationmode  none
attr source  sentPacketToLowerLayer
vector 100  CAIN.eNodeB.nic.mac  CainMessage:vector  ETV
attr interpolationmode  none
attr title  "eNB received CAIN message, vector"
vector 1733  CAIN.ueD2DTx[4].tcp  tcpRcvQueueBytes  ETV
vector 1720  CAIN.ueD2DTx[4].tcp  "advertised window"  ETV
vector 1719  CAIN.ueD2DTx[4].tcp  "receive window"  ETV
vector 1722  CAIN.ueD2DTx[4].tcp  "sent ack"  ETV
vector 333  CAIN.ueD2DTx[4].nic.pdcpRrc  receivedPacketFromUpperLayer:vector(packetBytes)  ETV
attr interpolationmode  none
attr source  receivedPacketFromUpperLayer
vector 336  CAIN.ueD2DTx[4].nic.pdcpRrc  sentPacketToLowerLayer:vector(packetBytes)  ETV
attr interpolationmode  none
attr source  sentPacketToLowerLayer
vector 337  CAIN.ueD2DTx[4].nic.mac  receivedPacketFromUpperLayer:vector(packetBytes)  ETV
attr interpolationmode  none
attr source  receivedPacketFromUpperLayer
vector 728  CAIN.ueD2DTx[16].nic.mac  DropedCainMessage:vector  ETV
attr interpolationmode  none
attr title  "Droped CAIN message due to RB not available, vector"
vector 1757  CAIN.ueD2DTx[21].tcp  tcpRcvQueueBytes  ETV
vector 1744  CAIN.ueD2DTx[21].tcp  "advertised window"  ETV
vector 1743  CAIN.ueD2DTx[21].tcp  "receive window"  ETV
vector 1746  CAIN.ueD2DTx[21].tcp  "sent ack"  ETV
vector 877  CAIN.ueD2DTx[21].nic.pdcpRrc  receivedPacketFromUpperLayer:vector(packetBytes)  ETV
attr interpolationmode  none
attr source  receivedPacketFromUpperLayer
vector 880  CAIN.ueD2DTx[21].nic.pdcpRrc  sentPacketToLowerLayer:vector(packetBytes)  ETV
attr interpolationmode  none
attr source  sentPacketToLowerLayer
vector 881  CAIN.ueD2DTx[21].nic.mac  receivedPacketFromUpperLayer:vector(packetBytes)  ETV
attr interpolationmode  none
attr source  receivedPacketFromUpperLayer
vector 891  CAIN.ueD2DTx[21].nic.mac  CainHopMessageSent:vector  ETV
attr interpolationmode  none
attr title  "# of Sent CAIN hop message, vector"
vector 884  CAIN.ueD2DTx[21].nic.mac  sentPacketToLowerLayer:vector(packetBytes)  ETV
attr interpolationmode  none
attr source  sentPacketToLowerLayer
vector 1781  CAIN.ueD2DTx[24].tcp  tcpRcvQueueBytes  ETV
vector 1768  CAIN.ueD2DTx[24].tcp  "advertised window"  ETV
vector 1767  CAIN.ueD2DTx[24].tcp  "receive window"  ETV
vector 1770  CAIN.ueD2DTx[24].tcp  "sent ack"  ETV
vector 973  CAIN.ueD2DTx[24].nic.pdcpRrc  receivedPacketFromUpperLayer:vector(packetBytes)  ETV
attr interpolationmode  none
attr source  receivedPacketFromUpperLayer
vector 976  CAIN.ueD2DTx[24].nic.pdcpRrc  sentPacketToLowerLayer:vector(packetBytes)  ETV
attr interpolationmode  none
attr source  sentPacketToLowerLayer
vector 977  CAIN.ueD2DTx[24].nic.mac  receivedPacketFromUpperLayer:vector(packetBytes)  ETV
attr interpolationmode  none
attr source  receivedPacketFromUpperLayer
vector 339  CAIN.ueD2DTx[4].nic.mac  sentPacketToUpperLayer:vector(packetBytes)  ETV
attr interpolationmode  none
attr source  sentPacketToUpperLayer
vector 980  CAIN.ueD2DTx[24].nic.mac  sentPacketToLowerLayer:vector(packetBytes)  ETV
attr interpolationmode  none
attr source  sentPacketToLowerLayer
vector 109  CAIN.eNodeB.nic.mac  ServedHopDevs:vector  ETV
attr interpolationmode  none
attr title  "# of devices served on hop forwarding, vector"
vector 978  CAIN.ueD2DTx[24].nic.mac  receivedPacketFromLowerLayer:vector(packetBytes)  ETV
attr interpolationmode  none
attr source  receivedPacketFromLowerLayer
vector 979  CAIN.ueD2DTx[24].nic.mac  sentPacketToUpperLayer:vector(packetBytes)  ETV
attr interpolationmode  none
attr source  sentPacketToUpperLayer
vector 690  CAIN.ueD2DTx[15].nic.mac  receivedPacketFromLowerLayer:vector(packetBytes)  ETV
attr interpolationmode  none
attr source  receivedPacketFromLowerLayer
vector 692  CAIN.ueD2DTx[15].nic.mac  sentPacketToLowerLayer:vector(packetBytes)  ETV
attr interpolationmode  none
attr source  sentPacketToLowerLayer
vector 1805  CAIN.ueD2DTx[8].tcp  tcpRcvQueueBytes  ETV
vector 1792  CAIN.ueD2DTx[8].tcp  "advertised window"  ETV
vector 1791  CAIN.ueD2DTx[8].tcp  "receive window"  ETV
vector 1794  CAIN.ueD2DTx[8].tcp  "sent ack"  ETV
vector 461  CAIN.ueD2DTx[8].nic.pdcpRrc  receivedPacketFromUpperLayer:vector(packetBytes)  ETV
attr interpolationmode  none
attr source  receivedPacketFromUpperLayer
vector 464  CAIN.ueD2DTx[8].nic.pdcpRrc  sentPacketToLowerLayer:vector(packetBytes)  ETV
attr interpolationmode  none
attr source  sentPacketToLowerLayer
vector 465  CAIN.ueD2DTx[8].nic.mac  receivedPacketFromUpperLayer:vector(packetBytes)  ETV
attr interpolationmode  none
attr source  receivedPacketFromUpperLayer
vector 475  CAIN.ueD2DTx[8].nic.mac  CainHopMessageSent:vector  ETV
attr interpolationmode  none
attr title  "# of Sent CAIN hop message, vector"
vector 468  CAIN.ueD2DTx[8].nic.mac  sentPacketToLowerLayer:vector(packetBytes)  ETV
attr interpolationmode  none
attr source  sentPacketToLowerLayer
vector 697  CAIN.ueD2DTx[15].nic.mac  DropedHopMessage:vector  ETV
attr interpolationmode  none
attr title  "Droped Hop CAIN message due to RB not available, vector"
vector 1829  CAIN.ueD2DTx[9].tcp  tcpRcvQueueBytes  ETV
vector 1816  CAIN.ueD2DTx[9].tcp  "advertised window"  ETV
vector 1815  CAIN.ueD2DTx[9].tcp  "receive window"  ETV
vector 1818  CAIN.ueD2DTx[9].tcp  "sent ack"  ETV
vector 493  CAIN.ueD2DTx[9].nic.pdcpRrc  receivedPacketFromUpperLayer:vector(packetBytes)  ETV
attr interpolationmode  none
attr source  receivedPacketFromUpperLayer
vector 496  CAIN.ueD2DTx[9].nic.pdcpRrc  sentPacketToLowerLayer:vector(packetBytes)  ETV
attr interpolationmode  none
attr source  sentPacketToLowerLayer
vector 497  CAIN.ueD2DTx[9].nic.mac  receivedPacketFromUpperLayer:vector(packetBytes)  ETV
attr interpolationmode  none
attr source  receivedPacketFromUpperLayer
vector 1853  CAIN.ueD2DTx[15].tcp  tcpRcvQueueBytes  ETV
vector 1840  CAIN.ueD2DTx[15].tcp  "advertised window"  ETV
vector 1839  CAIN.ueD2DTx[15].tcp  "receive window"  ETV
vector 1842  CAIN.ueD2DTx[15].tcp  "sent ack"  ETV
vector 685  CAIN.ueD2DTx[15].nic.pdcpRrc  receivedPacketFromUpperLayer:vector(packetBytes)  ETV
attr interpolationmode  none
attr source  receivedPacketFromUpperLayer
vector 688  CAIN.ueD2DTx[15].nic.pdcpRrc  sentPacketToLowerLayer:vector(packetBytes)  ETV
attr interpolationmode  none
attr source  sentPacketToLowerLayer
vector 689  CAIN.ueD2DTx[15].nic.mac  receivedPacketFromUpperLayer:vector(packetBytes)  ETV
attr interpolationmode  none
attr source  receivedPacketFromUpperLayer
vector 1877  CAIN.ueD2DTx[17].tcp  tcpRcvQueueBytes  ETV
vector 1864  CAIN.ueD2DTx[17].tcp  "advertised window"  ETV
vector 1863  CAIN.ueD2DTx[17].tcp  "receive window"  ETV
vector 1866  CAIN.ueD2DTx[17].tcp  "sent ack"  ETV
vector 749  CAIN.ueD2DTx[17].nic.pdcpRrc  receivedPacketFromUpperLayer:vector(packetBytes)  ETV
attr interpolationmode  none
attr source  receivedPacketFromUpperLayer
vector 752  CAIN.ueD2DTx[17].nic.pdcpRrc  sentPacketToLowerLayer:vector(packetBytes)  ETV
attr interpolationmode  none
attr source  sentPacketToLowerLayer
vector 753  CAIN.ueD2DTx[17].nic.mac  receivedPacketFromUpperLayer:vector(packetBytes)  ETV
attr interpolationmode  none
attr source  receivedPacketFromUpperLayer
vector 1901  CAIN.ueD2DTx[0].tcp  tcpRcvQueueBytes  ETV
vector 1888  CAIN.ueD2DTx[0].tcp  "advertised window"  ETV
vector 1887  CAIN.ueD2DTx[0].tcp  "receive window"  ETV
vector 1890  CAIN.ueD2DTx[0].tcp  "sent ack"  ETV
vector 205  CAIN.ueD2DTx[0].nic.pdcpRrc  receivedPacketFromUpperLayer:vector(packetBytes)  ETV
attr interpolationmode  none
attr source  receivedPacketFromUpperLayer
vector 208  CAIN.ueD2DTx[0].nic.pdcpRrc  sentPacketToLowerLayer:vector(packetBytes)  ETV
attr interpolationmode  none
attr source  sentPacketToLowerLayer
vector 209  CAIN.ueD2DTx[0].nic.mac  receivedPacketFromUpperLayer:vector(packetBytes)  ETV
attr interpolationmode  none
attr source  receivedPacketFromUpperLayer
vector 219  CAIN.ueD2DTx[0].nic.mac  CainHopMessageSent:vector  ETV
attr interpolationmode  none
attr title  "# of Sent CAIN hop message, vector"
vector 212  CAIN.ueD2DTx[0].nic.mac  sentPacketToLowerLayer:vector(packetBytes)  ETV
attr interpolationmode  none
attr source  sentPacketToLowerLayer
vector 499  CAIN.ueD2DTx[9].nic.mac  sentPacketToUpperLayer:vector(packetBytes)  ETV
attr interpolationmode  none
attr source  sentPacketToUpperLayer
vector 763  CAIN.ueD2DTx[17].nic.mac  CainHopMessageSent:vector  ETV
attr interpolationmode  none
attr title  "# of Sent CAIN hop message, vector"
vector 756  CAIN.ueD2DTx[17].nic.mac  sentPacketToLowerLayer:vector(packetBytes)  ETV
attr interpolationmode  none
attr source  sentPacketToLowerLayer
vector 691  CAIN.ueD2DTx[15].nic.mac  sentPacketToUpperLayer:vector(packetBytes)  ETV
attr interpolationmode  none
attr source  sentPacketToUpperLayer
vector 149  CAIN.eNodeB1.nic.pdcpRrc  receivedPacketFromUpperLayer:vector(packetBytes)  ETV
attr interpolationmode  none
attr source  receivedPacketFromUpperLayer
vector 152  CAIN.eNodeB1.nic.pdcpRrc  sentPacketToLowerLayer:vector(packetBytes)  ETV
attr interpolationmode  none
attr source  sentPacketToLowerLayer
vector 1461  CAIN.eNodeB1.sctp  "SendQueue of Association 5"  ETV
vector 1225  CAIN.eNodeB1.sctp  "TSN Sent 5:10.0.5.1"  ETV
vector 1232  CAIN.eNodeB1.sctp  "Outstanding Bytes 5:10.0.5.1"  ETV
vector 1030  CAIN.eNodeB1.sctp  "Outstanding Bytes 4:Total"  ETV
vector 1231  CAIN.eNodeB1.sctp  "Queued Sent Bytes 5:10.0.5.1"  ETV
vector 1029  CAIN.eNodeB1.sctp  "Queued Sent Bytes 4:Total"  ETV
vector 153  CAIN.eNodeB1.nic.mac  receivedPacketFromUpperLayer:vector(packetBytes)  ETV
attr interpolationmode  none
attr source  receivedPacketFromUpperLayer
vector 117  CAIN.eNodeB.pppIf.queue  rcvdPk:vector(packetBytes)  ETV
attr interpolationmode  none
attr title  "received packets, vector(packetBytes)"
vector 119  CAIN.eNodeB.pppIf.queue  queueingTime:vector  ETV
attr interpolationmode  none
attr title  "queueing time, vector"
vector 126  CAIN.eNodeB.pppIf.ppp  rcvdPkFromHL:vector(packetBytes)  ETV
attr interpolationmode  none
attr source  packetReceivedFromUpper
attr title  "packets received from higher layer, vector(packetBytes)"
vector 122  CAIN.eNodeB.pppIf.ppp  txPk:vector(packetBytes)  ETV
attr interpolationmode  none
attr source  packetSentToLower
attr title  "packets transmitted, vector(packetBytes)"
vector 1074  CAIN.eNodeB.sctp  "TSN Received 1:10.0.5.2"  ETV
vector 1050  CAIN.eNodeB.sctp  "Queued Received Bytes 1:Total"  ETV
vector 1046  CAIN.eNodeB.sctp  "Advertised Receiver Window 1"  ETV
vector 1055  CAIN.eNodeB.sctp  "Number of Total Gap Blocks Stored 1"  ETV
vector 1056  CAIN.eNodeB.sctp  "Number of Revokable Gap Blocks Stored 1"  ETV
vector 1057  CAIN.eNodeB.sctp  "Number of Non-Revokable Gap Blocks Stored 1"  ETV
vector 1058  CAIN.eNodeB.sctp  "Number of Duplicate TSNs Stored 1"  ETV
vector 1062  CAIN.eNodeB.sctp  "Length of SACK Sent 1"  ETV
vector 1059  CAIN.eNodeB.sctp  "Number of Revokable Gap Blocks Sent 1"  ETV
vector 1060  CAIN.eNodeB.sctp  "Number of Non-Revokable Gap Blocks Sent 1"  ETV
vector 1061  CAIN.eNodeB.sctp  "Number of Duplicate TSNs Sent 1"  ETV
vector 1066  CAIN.eNodeB.sctp  "End to End Delay of Association 1"  ETV
vector 141  CAIN.eNodeB.x2App[0].client  rcvdPk:vector(packetBytes)  ETV
attr interpolationmode  none
attr source  rcvdPk
attr title  "packets received, vector(packetBytes)"
vector 59  CAIN.pgw.ppp[0].ppp  rxPkOk:vector(packetBytes)  ETV
attr interpolationmode  none
attr source  rxPkOk
attr title  "packets received OK, vector(packetBytes)"
vector 63  CAIN.pgw.ppp[0].ppp  passedUpPk:vector(packetBytes)  ETV
attr interpolationmode  none
attr source  packetSentToUpper
attr title  "packets passed to higher layer, vector(packetBytes)"
vector 44  CAIN.pgw.udp  rcvdPk:vector(packetBytes)  ETV
attr interpolationmode  none
attr source  rcvdPk
attr title  "packets received, vector(packetBytes)"
vector 45  CAIN.pgw.udp  passedUpPk:vector(count)  ETV
attr interpolationmode  none
attr title  "packets passed up, vector(count)"
vector 43  CAIN.pgw.udp  sentPk:vector(packetBytes)  ETV
attr interpolationmode  none
attr source  sentPk
attr title  "packets sent, vector(packetBytes)"
vector 64  CAIN.pgw.ppp[1].queue  rcvdPk:vector(packetBytes)  ETV
attr interpolationmode  none
attr title  "received packets, vector(packetBytes)"
vector 66  CAIN.pgw.ppp[1].queue  queueingTime:vector  ETV
attr interpolationmode  none
attr title  "queueing time, vector"
vector 73  CAIN.pgw.ppp[1].ppp  rcvdPkFromHL:vector(packetBytes)  ETV
attr interpolationmode  none
attr source  packetReceivedFromUpper
attr title  "packets received from higher layer, vector(packetBytes)"
vector 69  CAIN.pgw.ppp[1].ppp  txPk:vector(packetBytes)  ETV
attr interpolationmode  none
attr source  packetSentToLower
attr title  "packets transmitted, vector(packetBytes)"
vector 1460  CAIN.eNodeB1.sctp  "Number of Gap Blocks in Last SACK of Association 5"  ETV
vector 1031  CAIN.eNodeB1.sctp  "Number of Revokable Gap Blocks in SACK 4"  ETV
vector 1032  CAIN.eNodeB1.sctp  "Number of Non-Revokable Gap Blocks in SACK 4"  ETV
vector 1242  CAIN.eNodeB1.sctp  "TSN Acked CumAck 5:10.0.5.1"  ETV
vector 1208  CAIN.eNodeB1.sctp  "Number of Gap Acked Chunks in Last SACK 5:10.0.2.2"  ETV
vector 1209  CAIN.eNodeB1.sctp  "Number of Non-Revokable Gap Acked Chunks in Last SACK 5:10.0.2.2"  ETV
vector 1210  CAIN.eNodeB1.sctp  "Number of Gap Missed Chunks in Last SACK 5:10.0.2.2"  ETV
vector 1181  CAIN.eNodeB1.sctp  "Number of Gap Acked Chunks in Last SACK 5:10.0.4.1"  ETV
vector 1182  CAIN.eNodeB1.sctp  "Number of Non-Revokable Gap Acked Chunks in Last SACK 5:10.0.4.1"  ETV
vector 1183  CAIN.eNodeB1.sctp  "Number of Gap Missed Chunks in Last SACK 5:10.0.4.1"  ETV
vector 1235  CAIN.eNodeB1.sctp  "Number of Gap Acked Chunks in Last SACK 5:10.0.5.1"  ETV
vector 1236  CAIN.eNodeB1.sctp  "Number of Non-Revokable Gap Acked Chunks in Last SACK 5:10.0.5.1"  ETV
vector 1237  CAIN.eNodeB1.sctp  "Number of Gap Missed Chunks in Last SACK 5:10.0.5.1"  ETV
vector 1041  CAIN.eNodeB1.sctp  "Arwnd in Last SACK 4"  ETV
vector 1244  CAIN.eNodeB1.sctp  "TSN PseudoCumAck 5:10.0.5.1"  ETV
vector 1245  CAIN.eNodeB1.sctp  "TSN RTXPseudoCumAck 5:10.0.5.1"  ETV
vector 1238  CAIN.eNodeB1.sctp  "Partial Bytes Acked 5:10.0.5.1"  ETV
vector 181  CAIN.eNodeB1.pppIf.ppp  rxPkOk:vector(packetBytes)  ETV
attr interpolationmode  none
attr source  rxPkOk
attr title  "packets received OK, vector(packetBytes)"
vector 185  CAIN.eNodeB1.pppIf.ppp  passedUpPk:vector(packetBytes)  ETV
attr interpolationmode  none
attr source  packetSentToUpper
attr title  "packets passed to higher layer, vector(packetBytes)"
vector 1925  CAIN.ueD2DTx[1].tcp  tcpRcvQueueBytes  ETV
vector 1912  CAIN.ueD2DTx[1].tcp  "advertised window"  ETV
vector 1911  CAIN.ueD2DTx[1].tcp  "receive window"  ETV
vector 1914  CAIN.ueD2DTx[1].tcp  "sent ack"  ETV
vector 237  CAIN.ueD2DTx[1].nic.pdcpRrc  receivedPacketFromUpperLayer:vector(packetBytes)  ETV
attr interpolationmode  none
attr source  receivedPacketFromUpperLayer
vector 240  CAIN.ueD2DTx[1].nic.pdcpRrc  sentPacketToLowerLayer:vector(packetBytes)  ETV
attr interpolationmode  none
attr source  sentPacketToLowerLayer
vector 241  CAIN.ueD2DTx[1].nic.mac  receivedPacketFromUpperLayer:vector(packetBytes)  ETV
attr interpolationmode  none
attr source  receivedPacketFromUpperLayer
vector 251  CAIN.ueD2DTx[1].nic.mac  CainHopMessageSent:vector  ETV
attr interpolationmode  none
attr title  "# of Sent CAIN hop message, vector"
vector 1949  CAIN.ueD2DTx[5].tcp  tcpRcvQueueBytes  ETV
vector 1936  CAIN.ueD2DTx[5].tcp  "advertised window"  ETV
vector 1935  CAIN.ueD2DTx[5].tcp  "receive window"  ETV
vector 1938  CAIN.ueD2DTx[5].tcp  "sent ack"  ETV
vector 365  CAIN.ueD2DTx[5].nic.pdcpRrc  receivedPacketFromUpperLayer:vector(packetBytes)  ETV
attr interpolationmode  none
attr source  receivedPacketFromUpperLayer
vector 368  CAIN.ueD2DTx[5].nic.pdcpRrc  sentPacketToLowerLayer:vector(packetBytes)  ETV
attr interpolationmode  none
attr source  sentPacketToLowerLayer
vector 369  CAIN.ueD2DTx[5].nic.mac  receivedPacketFromUpperLayer:vector(packetBytes)  ETV
attr interpolationmode  none
attr source  receivedPacketFromUpperLayer
vector 1973  CAIN.ueD2DTx[22].tcp  tcpRcvQueueBytes  ETV
vector 1960  CAIN.ueD2DTx[22].tcp  "advertised window"  ETV
vector 1959  CAIN.ueD2DTx[22].tcp  "receive window"  ETV
vector 1962  CAIN.ueD2DTx[22].tcp  "sent ack"  ETV
vector 909  CAIN.ueD2DTx[22].nic.pdcpRrc  receivedPacketFromUpperLayer:vector(packetBytes)  ETV
attr interpolationmode  none
attr source  receivedPacketFromUpperLayer
vector 912  CAIN.ueD2DTx[22].nic.pdcpRrc  sentPacketToLowerLayer:vector(packetBytes)  ETV
attr interpolationmode  none
attr source  sentPacketToLowerLayer
vector 913  CAIN.ueD2DTx[22].nic.mac  receivedPacketFromUpperLayer:vector(packetBytes)  ETV
attr interpolationmode  none
attr source  receivedPacketFromUpperLayer
vector 379  CAIN.ueD2DTx[5].nic.mac  CainHopMessageSent:vector  ETV
attr interpolationmode  none
attr title  "# of Sent CAIN hop message, vector"
vector 372  CAIN.ueD2DTx[5].nic.mac  sentPacketToLowerLayer:vector(packetBytes)  ETV
attr interpolationmode  none
attr source  sentPacketToLowerLayer
vector 922  CAIN.ueD2DTx[22].nic.mac  CainMessageSent:vector  ETV
attr interpolationmode  none
attr title  "# of Sent CAIN message, vector"
vector 154  CAIN.eNodeB1.nic.mac  receivedPacketFromLowerLayer:vector(packetBytes)  ETV
attr interpolationmode  none
attr source  receivedPacketFromLowerLayer
vector 1997  CAIN.ueD2DTx[3].tcp  tcpRcvQueueBytes  ETV
vector 1984  CAIN.ueD2DTx[3].tcp  "advertised window"  ETV
vector 1983  CAIN.ueD2DTx[3].tcp  "receive window"  ETV
vector 1986  CAIN.ueD2DTx[3].tcp  "sent ack"  ETV
vector 301  CAIN.ueD2DTx[3].nic.pdcpRrc  receivedPacketFromUpperLayer:vector(packetBytes)  ETV
attr interpolationmode  none
attr source  receivedPacketFromUpperLayer
vector 304  CAIN.ueD2DTx[3].nic.pdcpRrc  sentPacketToLowerLayer:vector(packetBytes)  ETV
attr interpolationmode  none
attr source  sentPacketToLowerLayer
vector 305  CAIN.ueD2DTx[3].nic.mac  receivedPacketFromUpperLayer:vector(packetBytes)  ETV
attr interpolationmode  none
attr source  receivedPacketFromUpperLayer
vector 315  CAIN.ueD2DTx[3].nic.mac  CainHopMessageSent:vector  ETV
attr interpolationmode  none
attr title  "# of Sent CAIN hop message, vector"
vector 308  CAIN.ueD2DTx[3].nic.mac  sentPacketToLowerLayer:vector(packetBytes)  ETV
attr interpolationmode  none
attr source  sentPacketToLowerLayer
vector 108  CAIN.eNodeB.nic.mac  ServedDevs:vector  ETV
attr interpolationmode  none
attr title  "# of devices served on cain forwarding, vector"
vector 2021  CAIN.ueD2DTx[16].tcp  tcpRcvQueueBytes  ETV
vector 2008  CAIN.ueD2DTx[16].tcp  "advertised window"  ETV
vector 2007  CAIN.ueD2DTx[16].tcp  "receive window"  ETV
vector 2010  CAIN.ueD2DTx[16].tcp  "sent ack"  ETV
vector 717  CAIN.ueD2DTx[16].nic.pdcpRrc  receivedPacketFromUpperLayer:vector(packetBytes)  ETV
attr interpolationmode  none
attr source  receivedPacketFromUpperLayer
vector 720  CAIN.ueD2DTx[16].nic.pdcpRrc  sentPacketToLowerLayer:vector(packetBytes)  ETV
attr interpolationmode  none
attr source  sentPacketToLowerLayer
vector 721  CAIN.ueD2DTx[16].nic.mac  receivedPacketFromUpperLayer:vector(packetBytes)  ETV
attr interpolationmode  none
attr source  receivedPacketFromUpperLayer
vector 723  CAIN.ueD2DTx[16].nic.mac  sentPacketToUpperLayer:vector(packetBytes)  ETV
attr interpolationmode  none
attr source  sentPacketToUpperLayer
vector 2045  CAIN.ueD2DTx[23].tcp  tcpRcvQueueBytes  ETV
vector 2032  CAIN.ueD2DTx[23].tcp  "advertised window"  ETV
vector 2031  CAIN.ueD2DTx[23].tcp  "receive window"  ETV
vector 2034  CAIN.ueD2DTx[23].tcp  "sent ack"  ETV
vector 941  CAIN.ueD2DTx[23].nic.pdcpRrc  receivedPacketFromUpperLayer:vector(packetBytes)  ETV
attr interpolationmode  none
attr source  receivedPacketFromUpperLayer
vector 944  CAIN.ueD2DTx[23].nic.pdcpRrc  sentPacketToLowerLayer:vector(packetBytes)  ETV
attr interpolationmode  none
attr source  sentPacketToLowerLayer
vector 945  CAIN.ueD2DTx[23].nic.mac  receivedPacketFromUpperLayer:vector(packetBytes)  ETV
attr interpolationmode  none
attr source  receivedPacketFromUpperLayer
vector 955  CAIN.ueD2DTx[23].nic.mac  CainHopMessageSent:vector  ETV
attr interpolationmode  none
attr title  "# of Sent CAIN hop message, vector"
vector 948  CAIN.ueD2DTx[23].nic.mac  sentPacketToLowerLayer:vector(packetBytes)  ETV
attr interpolationmode  none
attr source  sentPacketToLowerLayer
vector 2069  CAIN.ueD2DTx[18].tcp  tcpRcvQueueBytes  ETV
vector 2056  CAIN.ueD2DTx[18].tcp  "advertised window"  ETV
vector 2055  CAIN.ueD2DTx[18].tcp  "receive window"  ETV
vector 2058  CAIN.ueD2DTx[18].tcp  "sent ack"  ETV
vector 781  CAIN.ueD2DTx[18].nic.pdcpRrc  receivedPacketFromUpperLayer:vector(packetBytes)  ETV
attr interpolationmode  none
attr source  receivedPacketFromUpperLayer
vector 784  CAIN.ueD2DTx[18].nic.pdcpRrc  sentPacketToLowerLayer:vector(packetBytes)  ETV
attr interpolationmode  none
attr source  sentPacketToLowerLayer
vector 785  CAIN.ueD2DTx[18].nic.mac  receivedPacketFromUpperLayer:vector(packetBytes)  ETV
attr interpolationmode  none
attr source  receivedPacketFromUpperLayer
vector 788  CAIN.ueD2DTx[18].nic.mac  sentPacketToLowerLayer:vector(packetBytes)  ETV
attr interpolationmode  none
attr source  sentPacketToLowerLayer
vector 169  CAIN.eNodeB1.nic.mac  racpkt:vector  ETV
attr interpolationmode  none
attr title  "eNB received racpkt message, vector"
vector 170  CAIN.eNodeB1.nic.mac  racDistanceSignal:vector  ETV
attr interpolationmode  none
attr title  "Rac distance to enb, vector"
vector 171  CAIN.eNodeB1.nic.mac  racServedDevsSignal:vector  ETV
attr interpolationmode  none
attr title  "# of devices served on rac arriavall, vector"
vector 156  CAIN.eNodeB1.nic.mac  sentPacketToLowerLayer:vector(packetBytes)  ETV
attr interpolationmode  none
attr source  sentPacketToLowerLayer
vector 786  CAIN.ueD2DTx[18].nic.mac  receivedPacketFromLowerLayer:vector(packetBytes)  ETV
attr interpolationmode  none
attr source  receivedPacketFromLowerLayer
vector 882  CAIN.ueD2DTx[21].nic.mac  receivedPacketFromLowerLayer:vector(packetBytes)  ETV
attr interpolationmode  none
attr source  receivedPacketFromLowerLayer
vector 275  CAIN.ueD2DTx[2].nic.mac  sentPacketToUpperLayer:vector(packetBytes)  ETV
attr interpolationmode  none
attr source  sentPacketToUpperLayer
vector 173  CAIN.eNodeB1.nic.phy  averageCqiUlvect:vector  ETV
attr source  averageCqiUlvect
attr title  "Average Cqi reported in UL, vector"
attr unit  cqi
vector 155  CAIN.eNodeB1.nic.mac  sentPacketToUpperLayer:vector(packetBytes)  ETV
attr interpolationmode  none
attr source  sentPacketToUpperLayer
vector 157  CAIN.eNodeB1.nic.mac  measuredItbs:vector  ETV
attr source  measuredItbs
attr title  "TBS index, vector"
attr unit  ""
vector 890  CAIN.ueD2DTx[21].nic.mac  CainMessageSent:vector  ETV
attr interpolationmode  none
attr title  "# of Sent CAIN message, vector"
vector 754  CAIN.ueD2DTx[17].nic.mac  receivedPacketFromLowerLayer:vector(packetBytes)  ETV
attr interpolationmode  none
attr source  receivedPacketFromLowerLayer
vector 150  CAIN.eNodeB1.nic.pdcpRrc  receivedPacketFromLowerLayer:vector(packetBytes)  ETV
attr interpolationmode  none
attr source  receivedPacketFromLowerLayer
vector 151  CAIN.eNodeB1.nic.pdcpRrc  sentPacketToUpperLayer:vector(packetBytes)  ETV
attr interpolationmode  none
attr source  sentPacketToUpperLayer
vector 218  CAIN.ueD2DTx[0].nic.mac  CainMessageSent:vector  ETV
attr interpolationmode  none
attr title  "# of Sent CAIN message, vector"
vector 755  CAIN.ueD2DTx[17].nic.mac  sentPacketToUpperLayer:vector(packetBytes)  ETV
attr interpolationmode  none
attr source  sentPacketToUpperLayer
vector 243  CAIN.ueD2DTx[1].nic.mac  sentPacketToUpperLayer:vector(packetBytes)  ETV
attr interpolationmode  none
attr source  sentPacketToUpperLayer
vector 787  CAIN.ueD2DTx[18].nic.mac  sentPacketToUpperLayer:vector(packetBytes)  ETV
attr interpolationmode  none
attr source  sentPacketToUpperLayer
1268	175	0.0000001228	0
1379	260	0.0000006304	65535
1380	260	0.0000006304	8940
1381	260	0.0000006304	0.3725
1377	260	0.0000006304	3
1384	260	0.0000006304	1
1396	188	0.0000003096	0
1352	260	0.0000006304	65535
1353	260	0.0000006304	8940
1354	260	0.0000006304	0.3725
1350	260	0.0000006304	3
1357	260	0.0000006304	1
1369	188	0.0000003096	0
1070	260	0.0000006304	65535
1071	260	0.0000006304	8940
1072	260	0.0000006304	0.3725
1068	260	0.0000006304	3
1068	327	0.0000008564	1
1069	327	0.0000008564	2.26e-07
1074	4454	0.0570000972	2000
1074	4491	0.0570003844	2001
1074	4491	0.0570003844	2002
1074	4491	0.0570003844	2003
1074	4491	0.0570003844	2004
1074	4491	0.0570003844	2005
1074	4491	0.0570003844	2006
1074	4491	0.0570003844	2007
1074	20414	0.2570015836	2008
1074	20414	0.2570015836	2009
1074	20414	0.2570015836	2010
1074	20414	0.2570015836	2011
1074	20414	0.2570015836	2012
1074	20414	0.2570015836	2013
1074	20414	0.2570015836	2014
1074	20414	0.2570015836	2015
1074	20414	0.2570015836	2016
1074	20414	0.2570015836	2017
1074	20414	0.2570015836	2018
1074	20414	0.2570015836	2019
1074	20414	0.2570015836	2020
1074	20414	0.2570015836	2021
1074	20414	0.2570015836	2022
1074	20414	0.2570015836	2023
1074	20414	0.2570015836	2024
1074	20414	0.2570015836	2025
1074	20414	0.2570015836	2026
1074	20414	0.2570015836	2027
1074	20414	0.2570015836	2028
1074	20414	0.2570015836	2029
1074	20414	0.2570015836	2030
1074	20414	0.2570015836	2031
1074	20414	0.2570015836	2032
1074	20414	0.2570015836	2033
1074	20414	0.2570015836	2034
1074	20414	0.2570015836	2035
1074	20414	0.2570015836	2036
1074	20414	0.2570015836	2037
1074	20414	0.2570015836	2038
1074	20414	0.2570015836	2039
1074	20414	0.2570015836	2040
1074	20414	0.2570015836	2041
1074	20414	0.2570015836	2042
1074	20414	0.2570015836	2043
1074	20414	0.2570015836	2044
1074	20414	0.2570015836	2045
1074	20414	0.2570015836	2046
1074	20414	0.2570015836	2047
1074	20414	0.2570015836	2048
1074	20414	0.2570015836	2049
1074	20414	0.2570015836	2050
1074	20414	0.2570015836	2051
1074	20414	0.2570015836	2052
1074	20414	0.2570015836	2053
1074	20414	0.2570015836	2054
1074	20414	0.2570015836	2055
1074	20414	0.2570015836	2056
1074	20414	0.2570015836	2057
1074	20414	0.2570015836	2058
1074	20414	0.2570015836	2059
1074	20414	0.2570015836	2060
1074	20414	0.2570015836	2061
1074	20414	0.2570015836	2062
1074	20414	0.2570015836	2063
1074	20414	0.2570015836	2064
1074	20414	0.2570015836	2065
1074	20414	0.2570015836	2066
1074	20414	0.2570015836	2067
1074	20414	0.2570015836	2068
1074	20414	0.2570015836	2069
1074	20414	0.2570015836	2070
1074	20414	0.2570015836	2071
1077	232	0.000000552	1
1077	246	0.000000596	2
1076	232	0.000000552	1
1076	246	0.000000596	2
1078	327	0.0000008564	1
1078	333	0.0000009004	2
1087	156	0	0
1046	4454	0.0570000972	65533
1046	20400	0.2570003844	65535
1046	35972	0.4570015836	65535
1050	4454	0.0570000972	2
1050	4457	0.0570000972	2
1050	4499	0.0570003844	14
1050	4500	0.0570003844	0
1050	4501	0.0570003844	0
1050	4502	0.0570003844	0
1050	4503	0.0570003844	0
1050	4504	0.0570003844	0
1050	4505	0.0570003844	0
1050	20400	0.2570003844	0
1050	20479	0.2570015836	128
1050	20480	0.2570015836	0
1050	20481	0.2570015836	0
1050	20482	0.2570015836	0
1050	20483	0.2570015836	0
1050	20484	0.2570015836	0
1050	20485	0.2570015836	0
1050	20486	0.2570015836	0
1050	20487	0.2570015836	0
1050	20488	0.2570015836	0
1050	20489	0.2570015836	0
1050	20490	0.2570015836	0
1050	20491	0.2570015836	0
1050	20492	0.2570015836	0
1050	20493	0.2570015836	0
1050	20494	0.2570015836	0
1050	20495	0.2570015836	0
1050	20496	0.2570015836	0
1050	20497	0.2570015836	0
1050	20498	0.2570015836	0
1050	20499	0.2570015836	0
1050	20500	0.2570015836	0
1050	20501	0.2570015836	0
1050	20502	0.2570015836	0
1050	20503	0.2570015836	0
1050	20504	0.2570015836	0
1050	20505	0.2570015836	0
1050	20506	0.2570015836	0
1050	20507	0.2570015836	0
1050	20508	0.2570015836	0
1050	20509	0.2570015836	0
1050	20510	0.2570015836	0
1050	20511	0.2570015836	0
1050	20512	0.2570015836	0
1050	20513	0.2570015836	0
1050	20514	0.2570015836	0
1050	20515	0.2570015836	0
1050	20516	0.2570015836	0
1050	20517	0.2570015836	0
1050	20518	0.2570015836	0
1050	20519	0.2570015836	0
1050	20520	0.2570015836	0
1050	20521	0.2570015836	0
1050	20522	0.2570015836	0
1050	20523	0.2570015836	0
1050	20524	0.2570015836	0
1050	20525	0.2570015836	0
1050	20526	0.2570015836	0
1050	20527	0.2570015836	0
1050	20528	0.2570015836	0
1050	20529	0.2570015836	0
1050	20530	0.2570015836	0
1050	20531	0.2570015836	0
1050	20532	0.2570015836	0
1050	20533	0.2570015836	0
1050	20534	0.2570015836	0
1050	20535	0.2570015836	0
1050	20536	0.2570015836	0
1050	20537	0.2570015836	0
1050	20538	0.2570015836	0
1050	20539	0.2570015836	0
1050	20540	0.2570015836	0
1050	20541	0.2570015836	0
1050	20542	0.2570015836	0
1050	35972	0.4570015836	0
1055	4454	0.0570000972	0
1055	20400	0.2570003844	0
1055	35972	0.4570015836	0
1056	4454	0.0570000972	0
1056	20400	0.2570003844	0
1056	35972	0.4570015836	0
1057	4454	0.0570000972	0
1057	20400	0.2570003844	0
1057	35972	0.4570015836	0
1058	4454	0.0570000972	0
1058	20400	0.2570003844	0
1058	35972	0.4570015836	0
1059	4454	0.0570000972	0
1059	20400	0.2570003844	0
1059	35972	0.4570015836	0
1060	4454	0.0570000972	0
1060	20400	0.2570003844	0
1060	35972	0.4570015836	0
1061	4454	0.0570000972	0
1061	20400	0.2570003844	0
1061	35972	0.4570015836	0
1062	4454	0.0570000972	16
1062	20400	0.2570003844	16
1062	35972	0.4570015836	16
1064	188	0.0000003096	65535
1066	4457	0.0570000972	9.72e-08
1066	4499	0.0570003844	1.932e-07
1066	4499	0.0570003844	1.932e-07
1066	4499	0.0570003844	1.932e-07
1066	4499	0.0570003844	1.932e-07
1066	4499	0.0570003844	1.932e-07
1066	4499	0.0570003844	1.932e-07
1066	4499	0.0570003844	1.932e-07
1066	20479	0.2570015836	1.1052e-06
1066	20479	0.2570015836	1.1052e-06
1066	20479	0.2570015836	1.1052e-06
1066	20479	0.2570015836	1.1052e-06
1066	20479	0.2570015836	1.1052e-06
1066	20479	0.2570015836	1.1052e-06
1066	20479	0.2570015836	1.1052e-06
1066	20479	0.2570015836	1.1052e-06
1066	20479	0.2570015836	1.1052e-06
1066	20479	0.2570015836	1.1052e-06
1066	20479	0.2570015836	1.1052e-06
1066	20479	0.2570015836	1.1052e-06
1066	20479	0.2570015836	1.1052e-06
1066	20479	0.2570015836	1.1052e-06
1066	20479	0.2570015836	1.1052e-06
1066	20479	0.2570015836	1.1052e-06
1066	20479	0.2570015836	1.1052e-06
1066	20479	0.2570015836	1.1052e-06
1066	20479	0.2570015836	1.1052e-06
1066	20479	0.2570015836	1.1052e-06
1066	20479	0.2570015836	1.1052e-06
1066	20479	0.2570015836	1.1052e-06
1066	20479	0.2570015836	1.1052e-06
1066	20479	0.2570015836	1.1052e-06
1066	20479	0.2570015836	1.1052e-06
1066	20479	0.2570015836	1.1052e-06
1066	20479	0.2570015836	1.1052e-06
1066	20479	0.2570015836	1.1052e-06
1066	20479	0.2570015836	1.1052e-06
1066	20479	0.2570015836	1.1052e-06
1066	20479	0.2570015836	1.1052e-06
1066	20479	0.2570015836	1.1052e-06
1066	20479	0.2570015836	1.1052e-06
1066	20479	0.2570015836	1.1052e-06
1066	20479	0.2570015836	1.1052e-06
1066	20479	0.2570015836	1.1052e-06
1066	20479	0.2570015836	1.1052e-06
1066	20479	0.2570015836	1.1052e-06
1066	20479	0.2570015836	1.1052e-06
1066	20479	0.2570015836	1.1052e-06
1066	20479	0.2570015836	1.1052e-06
1066	20479	0.2570015836	1.1052e-06
1066	20479	0.2570015836	1.1052e-06
1066	20479	0.2570015836	1.1052e-06
1066	20479	0.2570015836	1.1052e-06
1066	20479	0.2570015836	1.1052e-06
1066	20479	0.2570015836	1.1052e-06
1066	20479	0.2570015836	1.1052e-06
1066	20479	0.2570015836	1.1052e-06
1066	20479	0.2570015836	1.1052e-06
1066	20479	0.2570015836	1.1052e-06
1066	20479	0.2570015836	1.1052e-06
1066	20479	0.2570015836	1.1052e-06
1066	20479	0.2570015836	1.1052e-06
1066	20479	0.2570015836	1.1052e-06
1066	20479	0.2570015836	1.1052e-06
1066	20479	0.2570015836	1.1052e-06
1066	20479	0.2570015836	1.1052e-06
1066	20479	0.2570015836	1.1052e-06
1066	20479	0.2570015836	1.1052e-06
1066	20479	0.2570015836	1.1052e-06
1066	20479	0.2570015836	1.1052e-06
1066	20479	0.2570015836	1.1052e-06
1066	20479	0.2570015836	1.1052e-06
1067	156	0	0
1298	203	0.000000458	65535
1299	203	0.000000458	8940
1300	203	0.000000458	0.3725
1296	203	0.000000458	3
1303	203	0.000000458	1
1311	729	0.0070001912	0
1311	16316	0.2070004784	0
1311	32165	0.4070016776	0
1312	729	0.0070001912	0
1312	16316	0.2070004784	0
1312	32165	0.4070016776	0
1313	729	0.0070001912	0
1313	16316	0.2070004784	0
1313	32165	0.4070016776	0
1315	175	0.0000001228	0
1271	203	0.000000458	65535
1272	203	0.000000458	8940
1273	203	0.000000458	0.3725
1269	203	0.000000458	3
1276	203	0.000000458	1
1284	729	0.0070001912	0
1284	16316	0.2070004784	0
1284	32165	0.4070016776	0
1285	729	0.0070001912	0
1285	16316	0.2070004784	0
1285	32165	0.4070016776	0
1286	729	0.0070001912	0
1286	16316	0.2070004784	0
1286	32165	0.4070016776	0
1288	175	0.0000001228	0
1325	203	0.000000458	65535
1325	93057	1.2070004784	65535
1326	203	0.000000458	8940
1326	93057	1.2070004784	8940
1327	203	0.000000458	0.3725
1327	93057	1.2070004784	23.84
1323	203	0.000000458	3
1323	280	0.0000006744	1
1323	729	0.0070001912	1
1323	16316	0.2070004784	1
1323	32165	0.4070016776	1
1324	280	0.0000006744	2.164e-07
1324	729	0.0070001912	1.912e-07
1324	16316	0.2070004784	0.2000002872
1324	32165	0.4070016776	0.2000011992
1328	674	0.007	2000
1328	729	0.0070001912	2001
1328	729	0.0070001912	2002
1328	729	0.0070001912	2003
1328	729	0.0070001912	2004
1328	729	0.0070001912	2005
1328	729	0.0070001912	2006
1328	729	0.0070001912	2007
1328	16316	0.2070004784	2008
1328	16316	0.2070004784	2009
1328	16316	0.2070004784	2010
1328	16316	0.2070004784	2011
1328	16316	0.2070004784	2012
1328	16316	0.2070004784	2013
1328	16316	0.2070004784	2014
1328	16316	0.2070004784	2015
1328	16316	0.2070004784	2016
1328	16316	0.2070004784	2017
1328	16316	0.2070004784	2018
1328	16316	0.2070004784	2019
1328	16316	0.2070004784	2020
1328	16316	0.2070004784	2021
1328	16316	0.2070004784	2022
1328	16316	0.2070004784	2023
1328	16316	0.2070004784	2024
1328	16316	0.2070004784	2025
1328	16316	0.2070004784	2026
1328	16316	0.2070004784	2027
1328	16316	0.2070004784	2028
1328	16316	0.2070004784	2029
1328	16316	0.2070004784	2030
1328	16316	0.2070004784	2031
1328	16316	0.2070004784	2032
1328	16316	0.2070004784	2033
1328	16316	0.2070004784	2034
1328	16316	0.2070004784	2035
1328	16316	0.2070004784	2036
1328	16316	0.2070004784	2037
1328	16316	0.2070004784	2038
1328	16316	0.2070004784	2039
1328	16316	0.2070004784	2040
1328	16316	0.2070004784	2041
1328	16316	0.2070004784	2042
1328	16316	0.2070004784	2043
1328	16316	0.2070004784	2044
1328	16316	0.2070004784	2045
1328	16316	0.2070004784	2046
1328	16316	0.2070004784	2047
1328	16316	0.2070004784	2048
1328	16316	0.2070004784	2049
1328	16316	0.2070004784	2050
1328	16316	0.2070004784	2051
1328	16316	0.2070004784	2052
1328	16316	0.2070004784	2053
1328	16316	0.2070004784	2054
1328	16316	0.2070004784	2055
1328	16316	0.2070004784	2056
1328	16316	0.2070004784	2057
1328	16316	0.2070004784	2058
1328	16316	0.2070004784	2059
1328	16316	0.2070004784	2060
1328	16316	0.2070004784	2061
1328	16316	0.2070004784	2062
1328	16316	0.2070004784	2063
1328	16316	0.2070004784	2064
1328	16316	0.2070004784	2065
1328	16316	0.2070004784	2066
1328	16316	0.2070004784	2067
1328	16316	0.2070004784	2068
1328	16316	0.2070004784	2069
1328	16316	0.2070004784	2070
1328	16316	0.2070004784	2071
1332	298	0.0000007624	1
1332	312	0.0000008064	2
1331	298	0.0000007624	1
1331	312	0.0000008064	2
1333	280	0.0000006744	1
1333	290	0.0000007184	2
1334	674	0.007	2
1334	729	0.0070001912	0
1334	729	0.0070001912	2
1334	729	0.0070001912	4
1334	729	0.0070001912	6
1334	729	0.0070001912	8
1334	729	0.0070001912	10
1334	729	0.0070001912	12
1334	729	0.0070001912	14
1334	16316	0.2070004784	12
1334	16316	0.2070004784	10
1334	16316	0.2070004784	8
1334	16316	0.2070004784	6
1334	16316	0.2070004784	4
1334	16316	0.2070004784	2
1334	16316	0.2070004784	0
1334	16316	0.2070004784	2
1334	16316	0.2070004784	4
1334	16316	0.2070004784	6
1334	16316	0.2070004784	8
1334	16316	0.2070004784	10
1334	16316	0.2070004784	12
1334	16316	0.2070004784	14
1334	16316	0.2070004784	16
1334	16316	0.2070004784	18
1334	16316	0.2070004784	20
1334	16316	0.2070004784	22
1334	16316	0.2070004784	24
1334	16316	0.2070004784	26
1334	16316	0.2070004784	28
1334	16316	0.2070004784	30
1334	16316	0.2070004784	32
1334	16316	0.2070004784	34
1334	16316	0.2070004784	36
1334	16316	0.2070004784	38
1334	16316	0.2070004784	40
1334	16316	0.2070004784	42
1334	16316	0.2070004784	44
1334	16316	0.2070004784	46
1334	16316	0.2070004784	48
1334	16316	0.2070004784	50
1334	16316	0.2070004784	52
1334	16316	0.2070004784	54
1334	16316	0.2070004784	56
1334	16316	0.2070004784	58
1334	16316	0.2070004784	60
1334	16316	0.2070004784	62
1334	16316	0.2070004784	64
1334	16316	0.2070004784	66
1334	16316	0.2070004784	68
1334	16316	0.2070004784	70
1334	16316	0.2070004784	72
1334	16316	0.2070004784	74
1334	16316	0.2070004784	76
1334	16316	0.2070004784	78
1334	16316	0.2070004784	80
1334	16316	0.2070004784	82
1334	16316	0.2070004784	84
1334	16316	0.2070004784	86
1334	16316	0.2070004784	88
1334	16316	0.2070004784	90
1334	16316	0.2070004784	92
1334	16316	0.2070004784	94
1334	16316	0.2070004784	96
1334	16316	0.2070004784	98
1334	16316	0.2070004784	100
1334	16316	0.2070004784	102
1334	16316	0.2070004784	104
1334	16316	0.2070004784	106
1334	16316	0.2070004784	108
1334	16316	0.2070004784	110
1334	16316	0.2070004784	112
1334	16316	0.2070004784	114
1334	16316	0.2070004784	116
1334	16316	0.2070004784	118
1334	16316	0.2070004784	120
1334	16316	0.2070004784	122
1334	16316	0.2070004784	124
1334	16316	0.2070004784	126
1334	16316	0.2070004784	128
1334	32165	0.4070016776	126
1334	32165	0.4070016776	124
1334	32165	0.4070016776	122
1334	32165	0.4070016776	120
1334	32165	0.4070016776	118
1334	32165	0.4070016776	116
1334	32165	0.4070016776	114
1334	32165	0.4070016776	112
1334	32165	0.4070016776	110
1334	32165	0.4070016776	108
1334	32165	0.4070016776	106
1334	32165	0.4070016776	104
1334	32165	0.4070016776	102
1334	32165	0.4070016776	100
1334	32165	0.4070016776	98
1334	32165	0.4070016776	96
1334	32165	0.4070016776	94
1334	32165	0.4070016776	92
1334	32165	0.4070016776	90
1334	32165	0.4070016776	88
1334	32165	0.4070016776	86
1334	32165	0.4070016776	84
1334	32165	0.4070016776	82
1334	32165	0.4070016776	80
1334	32165	0.4070016776	78
1334	32165	0.4070016776	76
1334	32165	0.4070016776	74
1334	32165	0.4070016776	72
1334	32165	0.4070016776	70
1334	32165	0.4070016776	68
1334	32165	0.4070016776	66
1334	32165	0.4070016776	64
1334	32165	0.4070016776	62
1334	32165	0.4070016776	60
1334	32165	0.4070016776	58
1334	32165	0.4070016776	56
1334	32165	0.4070016776	54
1334	32165	0.4070016776	52
1334	32165	0.4070016776	50
1334	32165	0.4070016776	48
1334	32165	0.4070016776	46
1334	32165	0.4070016776	44
1334	32165	0.4070016776	42
1334	32165	0.4070016776	40
1334	32165	0.4070016776	38
1334	32165	0.4070016776	36
1334	32165	0.4070016776	34
1334	32165	0.4070016776	32
1334	32165	0.4070016776	30
1334	32165	0.4070016776	28
1334	32165	0.4070016776	26
1334	32165	0.4070016776	24
1334	32165	0.4070016776	22
1334	32165	0.4070016776	20
1334	32165	0.4070016776	18
1334	32165	0.4070016776	16
1334	32165	0.4070016776	14
1334	32165	0.4070016776	12
1334	32165	0.4070016776	10
1334	32165	0.4070016776	8
1334	32165	0.4070016776	6
1334	32165	0.4070016776	4
1334	32165	0.4070016776	2
1334	32165	0.4070016776	0
1335	674	0.007	2
1335	729	0.0070001912	0
1335	729	0.0070001912	2
1335	729	0.0070001912	4
1335	729	0.0070001912	6
1335	729	0.0070001912	8
1335	729	0.0070001912	10
1335	729	0.0070001912	12
1335	729	0.0070001912	14
1335	16316	0.2070004784	12
1335	16316	0.2070004784	10
1335	16316	0.2070004784	8
1335	16316	0.2070004784	6
1335	16316	0.2070004784	4
1335	16316	0.2070004784	2
1335	16316	0.2070004784	0
1335	16316	0.2070004784	2
1335	16316	0.2070004784	4
1335	16316	0.2070004784	6
1335	16316	0.2070004784	8
1335	16316	0.2070004784	10
1335	16316	0.2070004784	12
1335	16316	0.2070004784	14
1335	16316	0.2070004784	16
1335	16316	0.2070004784	18
1335	16316	0.2070004784	20
1335	16316	0.2070004784	22
1335	16316	0.2070004784	24
1335	16316	0.2070004784	26
1335	16316	0.2070004784	28
1335	16316	0.2070004784	30
1335	16316	0.2070004784	32
1335	16316	0.2070004784	34
1335	16316	0.2070004784	36
1335	16316	0.2070004784	38
1335	16316	0.2070004784	40
1335	16316	0.2070004784	42
1335	16316	0.2070004784	44
1335	16316	0.2070004784	46
1335	16316	0.2070004784	48
1335	16316	0.2070004784	50
1335	16316	0.2070004784	52
1335	16316	0.2070004784	54
1335	16316	0.2070004784	56
1335	16316	0.2070004784	58
1335	16316	0.2070004784	60
1335	16316	0.2070004784	62
1335	16316	0.2070004784	64
1335	16316	0.2070004784	66
1335	16316	0.2070004784	68
1335	16316	0.2070004784	70
1335	16316	0.2070004784	72
1335	16316	0.2070004784	74
1335	16316	0.2070004784	76
1335	16316	0.2070004784	78
1335	16316	0.2070004784	80
1335	16316	0.2070004784	82
1335	16316	0.2070004784	84
1335	16316	0.2070004784	86
1335	16316	0.2070004784	88
1335	16316	0.2070004784	90
1335	16316	0.2070004784	92
1335	16316	0.2070004784	94
1335	16316	0.2070004784	96
1335	16316	0.2070004784	98
1335	16316	0.2070004784	100
1335	16316	0.2070004784	102
1335	16316	0.2070004784	104
1335	16316	0.2070004784	106
1335	16316	0.2070004784	108
1335	16316	0.2070004784	110
1335	16316	0.2070004784	112
1335	16316	0.2070004784	114
1335	16316	0.2070004784	116
1335	16316	0.2070004784	118
1335	16316	0.2070004784	120
1335	16316	0.2070004784	122
1335	16316	0.2070004784	124
1335	16316	0.2070004784	126
1335	16316	0.2070004784	128
1335	32165	0.4070016776	126
1335	32165	0.4070016776	124
1335	32165	0.4070016776	122
1335	32165	0.4070016776	120
1335	32165	0.4070016776	118
1335	32165	0.4070016776	116
1335	32165	0.4070016776	114
1335	32165	0.4070016776	112
1335	32165	0.4070016776	110
1335	32165	0.4070016776	108
1335	32165	0.4070016776	106
1335	32165	0.4070016776	104
1335	32165	0.4070016776	102
1335	32165	0.4070016776	100
1335	32165	0.4070016776	98
1335	32165	0.4070016776	96
1335	32165	0.4070016776	94
1335	32165	0.4070016776	92
1335	32165	0.4070016776	90
1335	32165	0.4070016776	88
1335	32165	0.4070016776	86
1335	32165	0.4070016776	84
1335	32165	0.4070016776	82
1335	32165	0.4070016776	80
1335	32165	0.4070016776	78
1335	32165	0.4070016776	76
1335	32165	0.4070016776	74
1335	32165	0.4070016776	72
1335	32165	0.4070016776	70
1335	32165	0.4070016776	68
1335	32165	0.4070016776	66
1335	32165	0.4070016776	64
1335	32165	0.4070016776	62
1335	32165	0.4070016776	60
1335	32165	0.4070016776	58
1335	32165	0.4070016776	56
1335	32165	0.4070016776	54
1335	32165	0.4070016776	52
1335	32165	0.4070016776	50
1335	32165	0.4070016776	48
1335	32165	0.4070016776	46
1335	32165	0.4070016776	44
1335	32165	0.4070016776	42
1335	32165	0.4070016776	40
1335	32165	0.4070016776	38
1335	32165	0.4070016776	36
[...]
955	93779	1.217	227
955	94178	1.222	228
955	94577	1.227	229
955	94909	1.232	230
955	95308	1.237	231
955	95682	1.242	232
955	96056	1.247	233
955	96455	1.252	234
955	96854	1.257	235
955	97187	1.262	236
955	97586	1.267	237
955	97960	1.272	238
955	98334	1.277	239
955	98733	1.282	240
955	99132	1.287	241
955	99464	1.292	242
955	99863	1.297	243
955	100256	1.302	244
955	100630	1.307	245
955	101029	1.312	246
955	101428	1.317	247
955	101760	1.322	248
955	102159	1.327	249
955	102533	1.332	250
955	102907	1.337	251
955	103306	1.342	252
955	103705	1.347	253
955	104037	1.352	254
955	104436	1.357	255
955	104810	1.362	256
955	105184	1.367	257
955	105583	1.372	258
955	105982	1.377	259
955	106314	1.382	260
955	106713	1.387	261
955	107087	1.392	262
955	107461	1.397	263
955	107879	1.402	264
955	108278	1.407	265
955	108610	1.412	266
955	109009	1.417	267
955	109383	1.422	268
955	109757	1.427	269
955	110156	1.432	270
955	110555	1.437	271
955	110887	1.442	272
955	111286	1.447	273
955	111660	1.452	274
955	112034	1.457	275
955	112433	1.462	276
955	112832	1.467	277
955	113164	1.472	278
955	113563	1.477	279
955	113937	1.482	280
955	114311	1.487	281
955	114710	1.492	282
955	115109	1.497	283
955	115460	1.502	284
955	115859	1.507	285
955	116233	1.512	286
955	116607	1.517	287
955	117006	1.522	288
955	117405	1.527	289
955	117737	1.532	290
955	118136	1.537	291
955	118510	1.542	292
955	118884	1.547	293
955	119283	1.552	294
955	119682	1.557	295
955	120014	1.562	296
955	120413	1.567	297
955	120787	1.572	298
955	121161	1.577	299
955	121560	1.582	300
955	121959	1.587	301
955	122291	1.592	302
955	122690	1.597	303
955	123083	1.602	304
955	123457	1.607	305
955	123856	1.612	306
955	124255	1.617	307
955	124587	1.622	308
955	124986	1.627	309
955	125360	1.632	310
955	125734	1.637	311
955	126133	1.642	312
955	126532	1.647	313
955	126864	1.652	314
955	127263	1.657	315
955	127637	1.662	316
955	128011	1.667	317
955	128410	1.672	318
955	128809	1.677	319
955	129141	1.682	320
955	129540	1.687	321
955	129914	1.692	322
955	130288	1.697	323
955	130706	1.702	324
955	131105	1.707	325
955	131437	1.712	326
955	131836	1.717	327
955	132210	1.722	328
955	132584	1.727	329
955	132983	1.732	330
955	133382	1.737	331
955	133714	1.742	332
955	134113	1.747	333
955	134487	1.752	334
955	134861	1.757	335
955	135260	1.762	336
955	135659	1.767	337
955	135991	1.772	338
955	136390	1.777	339
955	136764	1.782	340
955	137138	1.787	341
955	137537	1.792	342
955	137936	1.797	343
955	138287	1.802	344
955	138686	1.807	345
955	139060	1.812	346
955	139434	1.817	347
955	139833	1.822	348
955	140232	1.827	349
955	140564	1.832	350
955	140963	1.837	351
955	141337	1.842	352
955	141711	1.847	353
955	142110	1.852	354
955	142509	1.857	355
955	142841	1.862	356
955	143240	1.867	357
955	143614	1.872	358
955	143988	1.877	359
955	144387	1.882	360
955	144786	1.887	361
955	145118	1.892	362
955	145517	1.897	363
955	145910	1.902	364
955	146284	1.907	365
955	146683	1.912	366
955	147082	1.917	367
955	147414	1.922	368
955	147813	1.927	369
955	148187	1.932	370
955	148561	1.937	371
955	148960	1.942	372
955	149359	1.947	373
955	149691	1.952	374
955	150090	1.957	375
955	150464	1.962	376
955	150838	1.967	377
955	151237	1.972	378
955	151636	1.977	379
955	151968	1.982	380
955	152367	1.987	381
955	152741	1.992	382
955	153115	1.997	383
955	153533	2.002	384
955	153932	2.007	385
955	154264	2.012	386
955	154663	2.017	387
955	155037	2.022	388
955	155411	2.027	389
955	155810	2.032	390
955	156209	2.037	391
955	156541	2.042	392
955	156940	2.047	393
955	157314	2.052	394
955	157688	2.057	395
955	158087	2.062	396
955	158486	2.067	397
955	158818	2.072	398
955	159217	2.077	399
955	159591	2.082	400
955	159965	2.087	401
955	160364	2.092	402
955	160763	2.097	403
955	161114	2.102	404
955	161513	2.107	405
955	161887	2.112	406
955	162261	2.117	407
955	162660	2.122	408
955	163059	2.127	409
955	163391	2.132	410
955	163790	2.137	411
955	164164	2.142	412
955	164538	2.147	413
955	164937	2.152	414
955	165336	2.157	415
955	165668	2.162	416
955	166067	2.167	417
955	166441	2.172	418
955	166815	2.177	419
955	167214	2.182	420
955	167613	2.187	421
955	167945	2.192	422
955	168344	2.197	423
955	168737	2.202	424
955	169111	2.207	425
955	169510	2.212	426
955	169909	2.217	427
955	170241	2.222	428
955	170640	2.227	429
955	171014	2.232	430
955	171388	2.237	431
955	171787	2.242	432
955	172186	2.247	433
955	172518	2.252	434
955	172917	2.257	435
955	173291	2.262	436
955	173665	2.267	437
955	174064	2.272	438
955	174463	2.277	439
955	174795	2.282	440
955	175194	2.287	441
955	175568	2.292	442
955	175942	2.297	443
955	176360	2.302	444
955	176759	2.307	445
955	177091	2.312	446
955	177490	2.317	447
955	177864	2.322	448
955	178238	2.327	449
955	178637	2.332	450
955	179036	2.337	451
955	179368	2.342	452
955	179767	2.347	453
955	180141	2.352	454
955	180515	2.357	455
955	180914	2.362	456
955	181313	2.367	457
955	181645	2.372	458
955	182044	2.377	459
955	182418	2.382	460
955	182792	2.387	461
955	183191	2.392	462
955	183590	2.397	463
955	183941	2.402	464
955	184340	2.407	465
955	184714	2.412	466
955	185088	2.417	467
955	185487	2.422	468
955	185886	2.427	469
955	186218	2.432	470
955	186617	2.437	471
955	186991	2.442	472
955	187365	2.447	473
955	187764	2.452	474
955	188163	2.457	475
955	188495	2.462	476
955	188894	2.467	477
955	189268	2.472	478
955	189642	2.477	479
955	190041	2.482	480
955	190440	2.487	481
955	190772	2.492	482
955	191171	2.497	483
955	191564	2.502	484
955	191938	2.507	485
955	192337	2.512	486
955	192736	2.517	487
955	193068	2.522	488
955	193467	2.527	489
955	193841	2.532	490
955	194215	2.537	491
955	194614	2.542	492
955	195013	2.547	493
955	195345	2.552	494
955	195744	2.557	495
955	196118	2.562	496
955	196492	2.567	497
955	196891	2.572	498
955	197290	2.577	499
955	197622	2.582	500
955	198021	2.587	501
955	198395	2.592	502
955	198769	2.597	503
955	199187	2.602	504
955	199586	2.607	505
955	199918	2.612	506
955	200317	2.617	507
955	200691	2.622	508
955	201065	2.627	509
955	201464	2.632	510
955	201863	2.637	511
955	202195	2.642	512
955	202594	2.647	513
955	202968	2.652	514
955	203342	2.657	515
955	203741	2.662	516
955	204140	2.667	517
955	204472	2.672	518
955	204871	2.677	519
955	205245	2.682	520
955	205619	2.687	521
955	206018	2.692	522
955	206417	2.697	523
955	206768	2.702	524
955	207167	2.707	525
955	207541	2.712	526
955	207915	2.717	527
955	208314	2.722	528
955	208713	2.727	529
955	209045	2.732	530
955	209444	2.737	531
955	209818	2.742	532
955	210192	2.747	533
955	210591	2.752	534
955	210990	2.757	535
955	211322	2.762	536
955	211721	2.767	537
955	212095	2.772	538
955	212469	2.777	539
955	212868	2.782	540
955	213267	2.787	541
955	213599	2.792	542
955	213998	2.797	543
955	214391	2.802	544
955	214765	2.807	545
955	215164	2.812	546
955	215563	2.817	547
955	215895	2.822	548
955	216294	2.827	549
955	216668	2.832	550
955	217042	2.837	551
955	217441	2.842	552
955	217840	2.847	553
955	218172	2.852	554
955	218571	2.857	555
955	218945	2.862	556
955	219319	2.867	557
955	219718	2.872	558
955	220117	2.877	559
955	220449	2.882	560
955	220848	2.887	561
955	221222	2.892	562
955	221596	2.897	563
955	222014	2.902	564
955	222413	2.907	565
955	222745	2.912	566
955	223144	2.917	567
955	223518	2.922	568
955	223892	2.927	569
955	224291	2.932	570
955	224690	2.937	571
955	225022	2.942	572
955	225421	2.947	573
955	225795	2.952	574
955	226169	2.957	575
955	226568	2.962	576
955	226967	2.967	577
955	227299	2.972	578
955	227698	2.977	579
955	228072	2.982	580
955	228446	2.987	581
955	228845	2.992	582
955	229244	2.997	583
955	229595	3.002	584
955	229994	3.007	585
955	230368	3.012	586
955	230777	3.017	587
955	231214	3.022	588
955	231681	3.027	589
955	232071	3.032	590
955	232539	3.037	591
955	233005	3.042	592
955	233448	3.047	593
955	233942	3.052	594
955	234428	3.057	595
955	234884	3.062	596
955	235351	3.067	597
955	235761	3.072	598
955	236161	3.077	599
955	236595	3.082	600
955	237047	3.087	601
955	237442	3.092	602
955	237873	3.097	603
955	238299	3.102	604
955	238692	3.107	605
955	239109	3.112	606
955	239526	3.117	607
955	239876	3.122	608
955	240293	3.127	609
955	240685	3.132	610
955	241077	3.137	611
955	241494	3.142	612
955	241911	3.147	613
955	242261	3.152	614
955	242678	3.157	615
955	243070	3.162	616
955	243462	3.167	617
955	243879	3.172	618
955	244296	3.177	619
955	244647	3.182	620
955	245064	3.187	621
955	245456	3.192	622
955	245848	3.197	623
955	246283	3.202	624
955	246700	3.207	625
955	247050	3.212	626
955	247467	3.217	627
955	247859	3.222	628
955	248251	3.227	629
955	248668	3.232	630
955	249085	3.237	631
955	249435	3.242	632
955	249852	3.247	633
955	250244	3.252	634
955	250636	3.257	635
955	251053	3.262	636
955	251470	3.267	637
955	251820	3.272	638
955	252237	3.277	639
955	252630	3.282	640
955	253022	3.287	641
955	253439	3.292	642
955	253856	3.297	643
955	254224	3.302	644
955	254641	3.307	645
955	255033	3.312	646
955	255425	3.317	647
955	255842	3.322	648
955	256259	3.327	649
955	256609	3.332	650
955	257026	3.337	651
955	257418	3.342	652
955	257810	3.347	653
955	258227	3.352	654
955	258644	3.357	655
955	258994	3.362	656
955	259411	3.367	657
955	259803	3.372	658
955	260195	3.377	659
955	260613	3.382	660
955	261030	3.387	661
955	261380	3.392	662
955	261797	3.397	663
955	262207	3.402	664
955	262599	3.407	665
955	263016	3.412	666
955	263433	3.417	667
955	263783	3.422	668
955	264200	3.427	669
955	264592	3.432	670
955	264984	3.437	671
955	265401	3.442	672
955	265818	3.447	673
955	266168	3.452	674
955	266585	3.457	675
955	266977	3.462	676
955	267369	3.467	677
955	267786	3.472	678
955	268203	3.477	679
955	268554	3.482	680
955	268971	3.487	681
955	269363	3.492	682
955	269755	3.497	683
955	270190	3.502	684
955	270607	3.507	685
955	270957	3.512	686
955	271374	3.517	687
955	271766	3.522	688
955	272158	3.527	689
955	272575	3.532	690
955	272992	3.537	691
955	273342	3.542	692
955	273759	3.547	693
955	274151	3.552	694
955	274543	3.557	695
955	274960	3.562	696
955	275377	3.567	697
955	275727	3.572	698
955	276144	3.577	699
955	276537	3.582	700
955	276929	3.587	701
955	277346	3.592	702
955	277763	3.597	703
955	278131	3.602	704
955	278548	3.607	705
955	278940	3.612	706
955	279332	3.617	707
955	279749	3.622	708
955	280166	3.627	709
955	280516	3.632	710
955	280933	3.637	711
955	281325	3.642	712
955	281717	3.647	713
955	282134	3.652	714
955	282551	3.657	715
955	282901	3.662	716
955	283318	3.667	717
955	283710	3.672	718
955	284102	3.677	719
955	284520	3.682	720
955	284937	3.687	721
955	285287	3.692	722
955	285704	3.697	723
955	286114	3.702	724
955	286506	3.707	725
955	286923	3.712	726
955	287340	3.717	727
955	287690	3.722	728
955	288107	3.727	729
955	288499	3.732	730
955	288891	3.737	731
955	289308	3.742	732
955	289725	3.747	733
955	290075	3.752	734
955	290492	3.757	735
955	290884	3.762	736
955	291276	3.767	737
955	291693	3.772	738
955	292110	3.777	739
955	292461	3.782	740
955	292878	3.787	741
955	293270	3.792	742
955	293662	3.797	743
955	294097	3.802	744
955	294514	3.807	745
955	294864	3.812	746
955	295281	3.817	747
955	295673	3.822	748
955	296065	3.827	749
955	296482	3.832	750
955	296899	3.837	751
955	297249	3.842	752
955	297666	3.847	753
955	298058	3.852	754
955	298450	3.857	755
955	298867	3.862	756
955	299284	3.867	757
955	299634	3.872	758
955	300051	3.877	759
955	300444	3.882	760
955	300836	3.887	761
955	301253	3.892	762
955	301670	3.897	763
955	302038	3.902	764
955	302455	3.907	765
955	302847	3.912	766
955	303239	3.917	767
955	303656	3.922	768
955	304073	3.927	769
955	304423	3.932	770
955	304840	3.937	771
955	305232	3.942	772
955	305624	3.947	773
955	306041	3.952	774
955	306458	3.957	775
955	306808	3.962	776
955	307225	3.967	777
955	307617	3.972	778
955	308009	3.977	779
955	308427	3.982	780
955	308844	3.987	781
955	309194	3.992	782
955	309611	3.997	783
955	310021	4.002	784
955	310413	4.007	785
955	310830	4.012	786
955	311247	4.017	787
955	311597	4.022	788
955	312014	4.027	789
955	312406	4.032	790
955	312798	4.037	791
955	313215	4.042	792
955	313632	4.047	793
955	313982	4.052	794
955	314399	4.057	795
955	314791	4.062	796
955	315183	4.067	797
955	315600	4.072	798
955	316017	4.077	799
955	316368	4.082	800
955	316785	4.087	801
955	317177	4.092	802
955	317569	4.097	803
955	318004	4.102	804
955	318421	4.107	805
955	318771	4.112	806
955	319188	4.117	807
955	319580	4.122	808
955	319972	4.127	809
955	320389	4.132	810
955	320806	4.137	811
955	321156	4.142	812
955	321573	4.147	813
955	321965	4.152	814
955	322357	4.157	815
955	322774	4.162	816
955	323191	4.167	817
955	323541	4.172	818
955	323958	4.177	819
955	324351	4.182	820
955	324743	4.187	821
955	325160	4.192	822
955	325577	4.197	823
955	325945	4.202	824
955	326362	4.207	825
955	326754	4.212	826
955	327146	4.217	827
955	327563	4.222	828
955	327980	4.227	829
955	328330	4.232	830
955	328747	4.237	831
955	329139	4.242	832
955	329531	4.247	833
955	329948	4.252	834
955	330365	4.257	835
955	330715	4.262	836
955	331132	4.267	837
955	331524	4.272	838
955	331916	4.277	839
955	332334	4.282	840
955	332751	4.287	841
955	333101	4.292	842
955	333518	4.297	843
955	333928	4.302	844
955	334320	4.307	845
955	334737	4.312	846
955	335154	4.317	847
955	335504	4.322	848
955	335921	4.327	849
955	336313	4.332	850
955	336705	4.337	851
955	337122	4.342	852
955	337539	4.347	853
955	337889	4.352	854
955	338306	4.357	855
955	338698	4.362	856
955	339090	4.367	857
955	339507	4.372	858
955	339924	4.377	859
955	340275	4.382	860
955	340692	4.387	861
955	341084	4.392	862
955	341476	4.397	863
955	341911	4.402	864
955	342328	4.407	865
955	342678	4.412	866
955	343095	4.417	867
967	0	0	1
973	2971	0.041518176082	44
973	232944	3.041518176082	44
976	2971	0.041518176082	45
976	232944	3.041518176082	45
977	2974	0.041518176082	45
977	3357	0.046	47
977	232947	3.041518176082	45
977	233373	3.046	47
978	3257	0.044	0
978	3301	0.045	0
978	3628	0.049	0
978	3809	0.051	0
978	3811	0.051	0
978	3816	0.051	0
978	233262	3.044	0
978	233308	3.045	0
978	233648	3.049	0
978	233873	3.051	0
978	233875	3.051	0
978	233877	3.051	0
978	233883	3.051	0
979	3353	0.046	0
979	233369	3.046	0
980	3031	0.042	0
980	3360	0.046	0
980	3628	0.049	0
980	3816	0.051	0
980	233007	3.042	0
980	233376	3.046	0
980	233648	3.049	0
980	233877	3.051	0
980	233883	3.051	0
999	0	0	1
1479	994	0.012270864309	7504
1479	230395	3.012270864309	7504
1480	994	0.012270864309	7504
1480	230395	3.012270864309	7504
1482	994	0.012270864309	0
1482	230395	3.012270864309	0
1493	994	0.012270864309	0
1493	230395	3.012270864309	0
1503	1081	0.013169782835	7504
1503	230486	3.013169782835	7504
1504	1081	0.013169782835	7504
1504	230486	3.013169782835	7504
1506	1081	0.013169782835	0
1506	230486	3.013169782835	0
1517	1081	0.013169782835	0
1517	230486	3.013169782835	0
1527	1089	0.013528948517	7504
1527	230493	3.013528948517	7504
1528	1089	0.013528948517	7504
1528	230493	3.013528948517	7504
1530	1089	0.013528948517	0
1530	230493	3.013528948517	0
1541	1089	0.013528948517	0
1541	230493	3.013528948517	0
1551	1562	0.021843716542	7504
1551	231166	3.021843716542	7504
1552	1562	0.021843716542	7504
1552	231166	3.021843716542	7504
1554	1562	0.021843716542	0
1554	231166	3.021843716542	0
1565	1562	0.021843716542	0
1565	231166	3.021843716542	0
1575	1728	0.024352218178	7504
1575	231411	3.024352218178	7504
1576	1728	0.024352218178	7504
1576	231411	3.024352218178	7504
1578	1728	0.024352218178	0
1578	231411	3.024352218178	0
1589	1728	0.024352218178	0
1589	231411	3.024352218178	0
1599	1823	0.025271030879	7504
1599	231504	3.025271030879	7504
1600	1823	0.025271030879	7504
1600	231504	3.025271030879	7504
1602	1823	0.025271030879	0
1602	231504	3.025271030879	0
1613	1823	0.025271030879	0
1613	231504	3.025271030879	0
1623	1927	0.026259455872	7504
1623	231645	3.026259455872	7504
1624	1927	0.026259455872	7504
1624	231645	3.026259455872	7504
1626	1927	0.026259455872	0
1626	231645	3.026259455872	0
1637	1927	0.026259455872	0
1637	231645	3.026259455872	0
1647	2340	0.032546852513	7504
1647	232169	3.032546852513	7504
1648	2340	0.032546852513	7504
1648	232169	3.032546852513	7504
1650	2340	0.032546852513	0
1650	232169	3.032546852513	0
1661	2340	0.032546852513	0
1661	232169	3.032546852513	0
1671	2443	0.034129833705	7504
1671	232312	3.034129833705	7504
1672	2443	0.034129833705	7504
1672	232312	3.034129833705	7504
1674	2443	0.034129833705	0
1674	232312	3.034129833705	0
1685	2443	0.034129833705	0
1685	232312	3.034129833705	0
1695	2451	0.034439526021	7504
1695	232319	3.034439526021	7504
1696	2451	0.034439526021	7504
1696	232319	3.034439526021	7504
1698	2451	0.034439526021	0
1698	232319	3.034439526021	0
1709	2451	0.034439526021	0
1709	232319	3.034439526021	0
1719	2681	0.037261432968	7504
1719	232569	3.037261432968	7504
1720	2681	0.037261432968	7504
1720	232569	3.037261432968	7504
1722	2681	0.037261432968	0
1722	232569	3.037261432968	0
1733	2681	0.037261432968	0
1733	232569	3.037261432968	0
1743	2910	0.040466304503	7504
1743	232869	3.040466304503	7504
1744	2910	0.040466304503	7504
1744	232869	3.040466304503	7504
1746	2910	0.040466304503	0
1746	232869	3.040466304503	0
1757	2910	0.040466304503	0
1757	232869	3.040466304503	0
1767	2968	0.041518176082	7504
1767	232941	3.041518176082	7504
1768	2968	0.041518176082	7504
1768	232941	3.041518176082	7504
1770	2968	0.041518176082	0
1770	232941	3.041518176082	0
1781	2968	0.041518176082	0
1781	232941	3.041518176082	0
1791	3446	0.047532676856	7504
1791	233487	3.047532676856	7504
1792	3446	0.047532676856	7504
1792	233487	3.047532676856	7504
1794	3446	0.047532676856	0
1794	233487	3.047532676856	0
1805	3446	0.047532676856	0
1805	233487	3.047532676856	0
1815	3537	0.048413756283	7504
1815	233584	3.048413756283	7504
1816	3537	0.048413756283	7504
1816	233584	3.048413756283	7504
1818	3537	0.048413756283	0
1818	233584	3.048413756283	0
1829	3537	0.048413756283	0
1829	233584	3.048413756283	0
1839	3835	0.051566809383	7504
1839	233906	3.051566809383	7504
1840	3835	0.051566809383	7504
1840	233906	3.051566809383	7504
1842	3835	0.051566809383	0
1842	233906	3.051566809383	0
1853	3835	0.051566809383	0
1853	233906	3.051566809383	0
1863	3924	0.05273845314	7504
1863	233980	3.05273845314	7504
1864	3924	0.05273845314	7504
1864	233980	3.05273845314	7504
1866	3924	0.05273845314	0
1866	233980	3.05273845314	0
1877	3924	0.05273845314	0
1877	233980	3.05273845314	0
1887	3932	0.052847558425	7504
1887	233987	3.052847558425	7504
1888	3932	0.052847558425	7504
1888	233987	3.052847558425	7504
1890	3932	0.052847558425	0
1890	233987	3.052847558425	0
1901	3932	0.052847558425	0
1901	233987	3.052847558425	0
1911	4528	0.057084039294	7504
1911	234478	3.057084039294	7504
1912	4528	0.057084039294	7504
1912	234478	3.057084039294	7504
1914	4528	0.057084039294	0
1914	234478	3.057084039294	0
1925	4528	0.057084039294	0
1925	234478	3.057084039294	0
1935	4838	0.061955560849	7504
1935	234834	3.061955560849	7504
1936	4838	0.061955560849	7504
1936	234834	3.061955560849	7504
1938	4838	0.061955560849	0
1938	234834	3.061955560849	0
1949	4838	0.061955560849	0
1949	234834	3.061955560849	0
1959	4846	0.061974657003	7504
1959	234841	3.061974657003	7504
1960	4846	0.061974657003	7504
1960	234841	3.061974657003	7504
1962	4846	0.061974657003	0
1962	234841	3.061974657003	0
1973	4846	0.061974657003	0
1973	234841	3.061974657003	0
1983	5107	0.064453871725	7504
1983	235129	3.064453871725	7504
1984	5107	0.064453871725	7504
1984	235129	3.064453871725	7504
1986	5107	0.064453871725	0
1986	235129	3.064453871725	0
1997	5107	0.064453871725	0
1997	235129	3.064453871725	0
2007	6001	0.075361895796	7504
2007	236066	3.075361895796	7504
2008	6001	0.075361895796	7504
2008	236066	3.075361895796	7504
2010	6001	0.075361895796	0
2010	236066	3.075361895796	0
2021	6001	0.075361895796	0
2021	236066	3.075361895796	0
2031	6918	0.086746254247	7504
2031	237012	3.086746254247	7504
2032	6918	0.086746254247	7504
2032	237012	3.086746254247	7504
2034	6918	0.086746254247	0
2034	237012	3.086746254247	0
2045	6918	0.086746254247	0
2045	237012	3.086746254247	0
2055	7331	0.091364573385	7504
2055	237406	3.091364573385	7504
2056	7331	0.091364573385	7504
2056	237406	3.091364573385	7504
2058	7331	0.091364573385	0
2058	237406	3.091364573385	0
2069	7331	0.091364573385	0
2069	237406	3.091364573385	0
