file 3797594 1588968697                                         
version 2
run CAIN-30-20200508-17:06:36-16245
attr configname CAIN
attr datetime 20200508-17:06:36
attr dist 200
attr experiment CAIN
attr inifile omnetpp.ini
attr iterationvars "$numUe=25, $pwr=-50, $dist=200, $mob=\"./movements/RWP-0.0.movements\""
attr iterationvars2 "$numUe=25, $pwr=-50, $dist=200, $mob=\"./movements/RWP-0.0.movements\", $repetition=0"
attr measurement "$numUe=25, $pwr=-50, $dist=200, $mob=\"./movements/RWP-0.0.movements\""
attr mob "\"./movements/RWP-0.0.movements\""
attr network lte.simulations.networks.CAIN
attr numUe 25
attr processid 16245
attr pwr -50
attr repetition 0
attr replication #0
attr resultdir results
attr runnumber 30
attr seedset 0
param **.**.amcMode "\"AUTO\""
param **.amcMode "\"D2D\""
param **.cainNetwork true
param **.channelControl.alpha 1.0
param **.channelControl.carrierFrequency 2100e+6Hz
param **.channelControl.pMax 10W
param **.d2dCqi 7
param **.deployer.numRbDl 50
param **.deployer.numRbUl 50
param **.distThresh ${dist=200}
param **.fbDelay 1
param **.feedbackComputation "xmldoc(\"config_channel.xml\")"
param **.mobility.constraintAreaMaxX 1000m
param **.mobility.constraintAreaMaxY 1000m
param **.mobility.constraintAreaMaxZ 0m
param **.mobility.constraintAreaMinX 0m
param **.mobility.constraintAreaMinY 0m
param **.mobility.constraintAreaMinZ 0m
param **.nic.phy.channelModel "xmldoc(\"config_channel.xml\")"
param **.numBands 50
param **.pwrThresh "${pwr= -50}"
param **.qtdThresh 3
param **.rbAllocationType "\"localized\""
param **.routingRecorder.enabled false
param **.tcpApp[*].tClose -1s
param **.ueD2DTx[*].mobility.changeAngleBy "normal(0deg, 30deg)"
param **.ueD2DTx[*].mobility.changeInterval "normal(5s, 0.1s)"
param **.ueD2DTx[*].mobility.nodeId -1
param **.ueD2DTx[*].mobility.speed "normal(2mps, 0.01mps)"
param **.ueD2DTx[*].mobility.traceFile "${mob=\"./movements/RWP-0.0.movements\",\"./movements/RWP-0.5.movements\",\"./movements/RPGM-0.0.movements\",\"./movements/RPGM-0.5.movements\",\"./movements/RWPRPGM-0.0.movements\",\"./movements/RWPRPGM-0.5.movements\"}"
param **.ueD2DTx[*].mobilityType "\"BonnMotionMobility\""
param **.usePreconfiguredTxParams false
param *.eNodeB*.numX2Apps 1
param *.eNodeB*.x2App[*].server.localPort "5000 + ancestorIndex(1)"
param *.eNodeB.d2dCapable false
param *.eNodeB.mobility.initFromDisplayString false
param *.eNodeB.mobility.initialX 300m
param *.eNodeB.mobility.initialY 300m
param *.eNodeB.nic.phy.enableD2DCqiReporting true
param *.eNodeB.txPower 19952.62315mw
param *.eNodeB.x2App[0].client.connectAddress "\"eNodeB1%x2ppp0\""
param *.eNodeB1.d2dCapable true
param *.eNodeB1.mobility.initFromDisplayString false
param *.eNodeB1.mobility.initialX 700m
param *.eNodeB1.mobility.initialY 300m
param *.eNodeB1.nic.phy.enableD2DCqiReporting true
param *.eNodeB1.txPower 19952.62315mw
param *.eNodeB1.x2App[0].client.connectAddress "\"eNodeB%x2ppp0\""
param *.extCell[*].bandAllocationType "\"FULL_ALLOC\""
param *.extCell[*].bandUtilization 0.5
param *.extCell[*].txDirection "\"ANISOTROPIC\""
param *.extCell[*].txPower 20
param *.extCell[0].position_x 100m
param *.extCell[0].position_y 600m
param *.extCell[0].txAngle 315
param *.extCell[1].position_x 600m
param *.extCell[1].position_y 600m
param *.extCell[1].txAngle 225
param *.numExtCells 2
param *.numUeCell 0
param *.numUeD2DRx 1
param *.numUeD2DTx 1
param *.ue*.macCellId 1
param *.ue*.masterId 1
param *.ue*.mobility.initFromDisplayString false
param *.ue*[0].macCellId 1
param *.ue*[0].masterId 1
param *.ue*[0].mobility.initFromDisplayString false
param *.ueD2D*.numTcpApps 1
param *.ueD2D*[*].d2dCapable true
param *.ueD2D*[0].d2dCapable false
param *.ueD2D*[0].numTcpApps 1
param *.ueD2DRx[0].mobility.initialX 310m
param *.ueD2DRx[0].mobility.initialY 350m
param *.ueD2DRx[0].tcpApp[*].localPort 1000
param *.ueD2DRx[0].tcpApp[*].typename "\"TCPSinkApp\""
param *.ueD2DTx*.nic.d2dPeerAddresses "\"ueD2DTx[1]\""
param *.ueD2DTx*.tcpApp[*].connectAddress "\"ueD2DTx[0]\""
param *.ueD2DTx*.tcpApp[*].localAddress "\"ueD2DTx\""
param *.ueD2DTx*.tcpApp[*].localPort 1000
param *.ueD2DTx*.tcpApp[*].sendBytes 1GiB
param *.ueD2DTx*.tcpApp[*].typename "\"TCPSessionApp\""
param *.ueD2DTx*.tcpApp[0].active true
param *.ueD2DTx*.tcpApp[0].connectPort 1000
param *.ueD2DTx*.tcpApp[0].tOpen uniform(0.010s,0.1s)
param *.ueD2DTx*.tcpApp[0].tSend uniform(0.15s,0.5s)
param *.ueD2DTx[0].mobility.initialX 290m
param *.ueD2DTx[0].mobility.initialY 350m
param *.ueD2DTx[0].tcpApp[*].localPort 1000
param *.ueD2DTx[0].tcpApp[*].sendBytes 1GiB
param *.ueD2DTx[0].tcpApp[*].typename "\"TCPSessionApp\""
param *.ueD2DTx[0].tcpApp[0].active true
param *.ueD2DTx[0].tcpApp[0].connectAddress "\"ueD2DRx[0]\""
param *.ueD2DTx[0].tcpApp[0].connectPort 1000
param *.ueD2DTx[0].tcpApp[0].localAddress "\"ueD2DTx[0]\""
param *.ueD2DTx[0].tcpApp[0].tOpen uniform(0.010s,0.1s)
param *.ueD2DTx[0].tcpApp[0].tSend uniform(0.15s,0.5s)
param *.ueD2DTx[1].mobility.initialX 690m
param *.ueD2DTx[1].mobility.initialY 250m

vector 8  CAIN.server.ppp[0].queue  queueLength:vector  ETV
attr interpolationmode  sample-hold
attr title  "queue length, vector"
vector 9  CAIN.server.ppp[0].ppp  txState:vector  ETV
attr interpolationmode  sample-hold
attr title  "tx state, vector"
vector 24  CAIN.router.ppp[0].queue  queueLength:vector  ETV
attr interpolationmode  sample-hold
attr title  "queue length, vector"
vector 25  CAIN.router.ppp[0].ppp  txState:vector  ETV
attr interpolationmode  sample-hold
attr title  "tx state, vector"
vector 35  CAIN.router.ppp[1].queue  queueLength:vector  ETV
attr interpolationmode  sample-hold
attr title  "queue length, vector"
vector 36  CAIN.router.ppp[1].ppp  txState:vector  ETV
attr interpolationmode  sample-hold
attr title  "tx state, vector"
vector 56  CAIN.pgw.ppp[0].queue  queueLength:vector  ETV
attr interpolationmode  sample-hold
attr title  "queue length, vector"
vector 57  CAIN.pgw.ppp[0].ppp  txState:vector  ETV
attr interpolationmode  sample-hold
attr title  "tx state, vector"
vector 67  CAIN.pgw.ppp[1].queue  queueLength:vector  ETV
attr interpolationmode  sample-hold
attr title  "queue length, vector"
vector 68  CAIN.pgw.ppp[1].ppp  txState:vector  ETV
attr interpolationmode  sample-hold
attr title  "tx state, vector"
vector 78  CAIN.pgw.pppInterface.queue  queueLength:vector  ETV
attr interpolationmode  sample-hold
attr title  "queue length, vector"
vector 79  CAIN.pgw.pppInterface.ppp  txState:vector  ETV
attr interpolationmode  sample-hold
attr title  "tx state, vector"
vector 120  CAIN.eNodeB.pppIf.queue  queueLength:vector  ETV
attr interpolationmode  sample-hold
attr title  "queue length, vector"
vector 121  CAIN.eNodeB.pppIf.ppp  txState:vector  ETV
attr interpolationmode  sample-hold
attr title  "tx state, vector"
vector 131  CAIN.eNodeB.x2ppp[0].queue  queueLength:vector  ETV
attr interpolationmode  sample-hold
attr title  "queue length, vector"
vector 132  CAIN.eNodeB.x2ppp[0].ppp  txState:vector  ETV
attr interpolationmode  sample-hold
attr title  "tx state, vector"
vector 178  CAIN.eNodeB1.pppIf.queue  queueLength:vector  ETV
attr interpolationmode  sample-hold
attr title  "queue length, vector"
vector 179  CAIN.eNodeB1.pppIf.ppp  txState:vector  ETV
attr interpolationmode  sample-hold
attr title  "tx state, vector"
vector 189  CAIN.eNodeB1.x2ppp[0].queue  queueLength:vector  ETV
attr interpolationmode  sample-hold
attr title  "queue length, vector"
vector 190  CAIN.eNodeB1.x2ppp[0].ppp  txState:vector  ETV
attr interpolationmode  sample-hold
attr title  "tx state, vector"
vector 231  CAIN.ueD2DTx[0].nic.phy  servingCell:vector  ETV
attr source  servingCell
attr title  "ID of the serving eNodeB for the UE, vector"
attr unit  ""
vector 263  CAIN.ueD2DTx[1].nic.phy  servingCell:vector  ETV
attr source  servingCell
attr title  "ID of the serving eNodeB for the UE, vector"
attr unit  ""
vector 295  CAIN.ueD2DTx[2].nic.phy  servingCell:vector  ETV
attr source  servingCell
attr title  "ID of the serving eNodeB for the UE, vector"
attr unit  ""
vector 327  CAIN.ueD2DTx[3].nic.phy  servingCell:vector  ETV
attr source  servingCell
attr title  "ID of the serving eNodeB for the UE, vector"
attr unit  ""
vector 359  CAIN.ueD2DTx[4].nic.phy  servingCell:vector  ETV
attr source  servingCell
attr title  "ID of the serving eNodeB for the UE, vector"
attr unit  ""
vector 391  CAIN.ueD2DTx[5].nic.phy  servingCell:vector  ETV
attr source  servingCell
attr title  "ID of the serving eNodeB for the UE, vector"
attr unit  ""
vector 423  CAIN.ueD2DTx[6].nic.phy  servingCell:vector  ETV
attr source  servingCell
attr title  "ID of the serving eNodeB for the UE, vector"
attr unit  ""
vector 455  CAIN.ueD2DTx[7].nic.phy  servingCell:vector  ETV
attr source  servingCell
attr title  "ID of the serving eNodeB for the UE, vector"
attr unit  ""
vector 487  CAIN.ueD2DTx[8].nic.phy  servingCell:vector  ETV
attr source  servingCell
attr title  "ID of the serving eNodeB for the UE, vector"
attr unit  ""
vector 519  CAIN.ueD2DTx[9].nic.phy  servingCell:vector  ETV
attr source  servingCell
attr title  "ID of the serving eNodeB for the UE, vector"
attr unit  ""
vector 551  CAIN.ueD2DTx[10].nic.phy  servingCell:vector  ETV
attr source  servingCell
attr title  "ID of the serving eNodeB for the UE, vector"
attr unit  ""
vector 583  CAIN.ueD2DTx[11].nic.phy  servingCell:vector  ETV
attr source  servingCell
attr title  "ID of the serving eNodeB for the UE, vector"
attr unit  ""
vector 615  CAIN.ueD2DTx[12].nic.phy  servingCell:vector  ETV
attr source  servingCell
attr title  "ID of the serving eNodeB for the UE, vector"
attr unit  ""
vector 647  CAIN.ueD2DTx[13].nic.phy  servingCell:vector  ETV
attr source  servingCell
attr title  "ID of the serving eNodeB for the UE, vector"
attr unit  ""
vector 679  CAIN.ueD2DTx[14].nic.phy  servingCell:vector  ETV
attr source  servingCell
attr title  "ID of the serving eNodeB for the UE, vector"
attr unit  ""
vector 711  CAIN.ueD2DTx[15].nic.phy  servingCell:vector  ETV
attr source  servingCell
attr title  "ID of the serving eNodeB for the UE, vector"
attr unit  ""
vector 743  CAIN.ueD2DTx[16].nic.phy  servingCell:vector  ETV
attr source  servingCell
attr title  "ID of the serving eNodeB for the UE, vector"
attr unit  ""
vector 775  CAIN.ueD2DTx[17].nic.phy  servingCell:vector  ETV
attr source  servingCell
attr title  "ID of the serving eNodeB for the UE, vector"
attr unit  ""
vector 807  CAIN.ueD2DTx[18].nic.phy  servingCell:vector  ETV
attr source  servingCell
attr title  "ID of the serving eNodeB for the UE, vector"
attr unit  ""
vector 839  CAIN.ueD2DTx[19].nic.phy  servingCell:vector  ETV
attr source  servingCell
attr title  "ID of the serving eNodeB for the UE, vector"
attr unit  ""
vector 871  CAIN.ueD2DTx[20].nic.phy  servingCell:vector  ETV
attr source  servingCell
attr title  "ID of the serving eNodeB for the UE, vector"
attr unit  ""
vector 903  CAIN.ueD2DTx[21].nic.phy  servingCell:vector  ETV
attr source  servingCell
attr title  "ID of the serving eNodeB for the UE, vector"
attr unit  ""
vector 935  CAIN.ueD2DTx[22].nic.phy  servingCell:vector  ETV
attr source  servingCell
attr title  "ID of the serving eNodeB for the UE, vector"
attr unit  ""
vector 967  CAIN.ueD2DTx[23].nic.phy  servingCell:vector  ETV
attr source  servingCell
attr title  "ID of the serving eNodeB for the UE, vector"
attr unit  ""
vector 999  CAIN.ueD2DTx[24].nic.phy  servingCell:vector  ETV
attr source  servingCell
attr title  "ID of the serving eNodeB for the UE, vector"
attr unit  ""
vector 1023  CAIN.eNodeB.sctp  "Throughput of Association 3"  ETV
vector 1045  CAIN.eNodeB1.sctp  "Throughput of Association 4"  ETV
vector 1067  CAIN.eNodeB.sctp  "Throughput of Association 1"  ETV
vector 1087  CAIN.eNodeB.sctp  "Fast Recovery State 1:10.0.5.2"  ETV
vector 1116  CAIN.eNodeB1.sctp  "Throughput of Association 2"  ETV
vector 1136  CAIN.eNodeB1.sctp  "Fast Recovery State 2:10.0.5.1"  ETV
vector 128  CAIN.eNodeB.x2ppp[0].queue  rcvdPk:vector(packetBytes)  ETV
attr interpolationmode  none
attr title  "received packets, vector(packetBytes)"
vector 130  CAIN.eNodeB.x2ppp[0].queue  queueingTime:vector  ETV
attr interpolationmode  none
attr title  "queueing time, vector"
vector 186  CAIN.eNodeB1.x2ppp[0].queue  rcvdPk:vector(packetBytes)  ETV
attr interpolationmode  none
attr title  "received packets, vector(packetBytes)"
vector 188  CAIN.eNodeB1.x2ppp[0].queue  queueingTime:vector  ETV
attr interpolationmode  none
attr title  "queueing time, vector"
vector 137  CAIN.eNodeB.x2ppp[0].ppp  rcvdPkFromHL:vector(packetBytes)  ETV
attr interpolationmode  none
attr source  packetReceivedFromUpper
attr title  "packets received from higher layer, vector(packetBytes)"
vector 133  CAIN.eNodeB.x2ppp[0].ppp  txPk:vector(packetBytes)  ETV
attr interpolationmode  none
attr source  packetSentToLower
attr title  "packets transmitted, vector(packetBytes)"
vector 195  CAIN.eNodeB1.x2ppp[0].ppp  rcvdPkFromHL:vector(packetBytes)  ETV
attr interpolationmode  none
attr source  packetReceivedFromUpper
attr title  "packets received from higher layer, vector(packetBytes)"
vector 191  CAIN.eNodeB1.x2ppp[0].ppp  txPk:vector(packetBytes)  ETV
attr interpolationmode  none
attr source  packetSentToLower
attr title  "packets transmitted, vector(packetBytes)"
vector 192  CAIN.eNodeB1.x2ppp[0].ppp  rxPkOk:vector(packetBytes)  ETV
attr interpolationmode  none
attr source  rxPkOk
attr title  "packets received OK, vector(packetBytes)"
vector 196  CAIN.eNodeB1.x2ppp[0].ppp  passedUpPk:vector(packetBytes)  ETV
attr interpolationmode  none
attr source  packetSentToUpper
attr title  "packets passed to higher layer, vector(packetBytes)"
vector 134  CAIN.eNodeB.x2ppp[0].ppp  rxPkOk:vector(packetBytes)  ETV
attr interpolationmode  none
attr source  rxPkOk
attr title  "packets received OK, vector(packetBytes)"
vector 138  CAIN.eNodeB.x2ppp[0].ppp  passedUpPk:vector(packetBytes)  ETV
attr interpolationmode  none
attr source  packetSentToUpper
attr title  "packets passed to higher layer, vector(packetBytes)"
vector 1165  CAIN.eNodeB1.sctp  "Throughput of Association 4"  ETV
vector 1042  CAIN.eNodeB1.sctp  "Peer Rwnd 4"  ETV
vector 1185  CAIN.eNodeB1.sctp  "Fast Recovery State 5:10.0.4.1"  ETV
vector 1212  CAIN.eNodeB1.sctp  "Fast Recovery State 5:10.0.2.2"  ETV
vector 1239  CAIN.eNodeB1.sctp  "Fast Recovery State 5:10.0.5.1"  ETV
vector 1268  CAIN.eNodeB.sctp  "Throughput of Association 3"  ETV
vector 1020  CAIN.eNodeB.sctp  "Peer Rwnd 3"  ETV
vector 1288  CAIN.eNodeB.sctp  "Fast Recovery State 6:10.0.4.2"  ETV
vector 1315  CAIN.eNodeB.sctp  "Fast Recovery State 6:10.0.3.2"  ETV
vector 1342  CAIN.eNodeB.sctp  "Fast Recovery State 6:10.0.5.2"  ETV
vector 1064  CAIN.eNodeB.sctp  "Peer Rwnd 1"  ETV
vector 1369  CAIN.eNodeB.sctp  "Fast Recovery State 1:10.0.4.2"  ETV
vector 1396  CAIN.eNodeB.sctp  "Fast Recovery State 1:10.0.3.2"  ETV
vector 1113  CAIN.eNodeB1.sctp  "Peer Rwnd 2"  ETV
vector 1423  CAIN.eNodeB1.sctp  "Fast Recovery State 2:10.0.4.1"  ETV
vector 1450  CAIN.eNodeB1.sctp  "Fast Recovery State 2:10.0.2.2"  ETV
vector 1195  CAIN.eNodeB1.sctp  "Slow Start Threshold 5:10.0.2.2"  ETV
vector 1196  CAIN.eNodeB1.sctp  "Congestion Window 5:10.0.2.2"  ETV
vector 1197  CAIN.eNodeB1.sctp  "Bandwidth 5:10.0.2.2"  ETV
vector 1200  CAIN.eNodeB1.sctp  "HB Sent 5:10.0.2.2"  ETV
vector 1193  CAIN.eNodeB1.sctp  "RTO 5:10.0.2.2"  ETV
vector 1168  CAIN.eNodeB1.sctp  "Slow Start Threshold 5:10.0.4.1"  ETV
vector 1169  CAIN.eNodeB1.sctp  "Congestion Window 5:10.0.4.1"  ETV
vector 1170  CAIN.eNodeB1.sctp  "Bandwidth 5:10.0.4.1"  ETV
vector 1173  CAIN.eNodeB1.sctp  "HB Sent 5:10.0.4.1"  ETV
vector 1166  CAIN.eNodeB1.sctp  "RTO 5:10.0.4.1"  ETV
vector 1222  CAIN.eNodeB1.sctp  "Slow Start Threshold 5:10.0.5.1"  ETV
vector 1223  CAIN.eNodeB1.sctp  "Congestion Window 5:10.0.5.1"  ETV
vector 1224  CAIN.eNodeB1.sctp  "Bandwidth 5:10.0.5.1"  ETV
vector 1220  CAIN.eNodeB1.sctp  "RTO 5:10.0.5.1"  ETV
vector 1298  CAIN.eNodeB.sctp  "Slow Start Threshold 6:10.0.3.2"  ETV
vector 1299  CAIN.eNodeB.sctp  "Congestion Window 6:10.0.3.2"  ETV
vector 1300  CAIN.eNodeB.sctp  "Bandwidth 6:10.0.3.2"  ETV
vector 1303  CAIN.eNodeB.sctp  "HB Sent 6:10.0.3.2"  ETV
vector 1296  CAIN.eNodeB.sctp  "RTO 6:10.0.3.2"  ETV
vector 1271  CAIN.eNodeB.sctp  "Slow Start Threshold 6:10.0.4.2"  ETV
vector 1272  CAIN.eNodeB.sctp  "Congestion Window 6:10.0.4.2"  ETV
vector 1273  CAIN.eNodeB.sctp  "Bandwidth 6:10.0.4.2"  ETV
vector 1276  CAIN.eNodeB.sctp  "HB Sent 6:10.0.4.2"  ETV
vector 1269  CAIN.eNodeB.sctp  "RTO 6:10.0.4.2"  ETV
vector 1325  CAIN.eNodeB.sctp  "Slow Start Threshold 6:10.0.5.2"  ETV
vector 1326  CAIN.eNodeB.sctp  "Congestion Window 6:10.0.5.2"  ETV
vector 1327  CAIN.eNodeB.sctp  "Bandwidth 6:10.0.5.2"  ETV
vector 1323  CAIN.eNodeB.sctp  "RTO 6:10.0.5.2"  ETV
vector 1076  CAIN.eNodeB.sctp  "HB ACK Sent 1:10.0.5.2"  ETV
vector 1077  CAIN.eNodeB.sctp  "HB Received 1:10.0.5.2"  ETV
vector 1125  CAIN.eNodeB1.sctp  "HB ACK Sent 2:10.0.5.1"  ETV
vector 1126  CAIN.eNodeB1.sctp  "HB Received 2:10.0.5.1"  ETV
vector 1379  CAIN.eNodeB.sctp  "Slow Start Threshold 1:10.0.3.2"  ETV
vector 1380  CAIN.eNodeB.sctp  "Congestion Window 1:10.0.3.2"  ETV
vector 1381  CAIN.eNodeB.sctp  "Bandwidth 1:10.0.3.2"  ETV
vector 1384  CAIN.eNodeB.sctp  "HB Sent 1:10.0.3.2"  ETV
vector 1377  CAIN.eNodeB.sctp  "RTO 1:10.0.3.2"  ETV
vector 1352  CAIN.eNodeB.sctp  "Slow Start Threshold 1:10.0.4.2"  ETV
vector 1353  CAIN.eNodeB.sctp  "Congestion Window 1:10.0.4.2"  ETV
vector 1354  CAIN.eNodeB.sctp  "Bandwidth 1:10.0.4.2"  ETV
vector 1357  CAIN.eNodeB.sctp  "HB Sent 1:10.0.4.2"  ETV
vector 1350  CAIN.eNodeB.sctp  "RTO 1:10.0.4.2"  ETV
vector 1070  CAIN.eNodeB.sctp  "Slow Start Threshold 1:10.0.5.2"  ETV
vector 1071  CAIN.eNodeB.sctp  "Congestion Window 1:10.0.5.2"  ETV
vector 1072  CAIN.eNodeB.sctp  "Bandwidth 1:10.0.5.2"  ETV
vector 1068  CAIN.eNodeB.sctp  "RTO 1:10.0.5.2"  ETV
vector 1433  CAIN.eNodeB1.sctp  "Slow Start Threshold 2:10.0.2.2"  ETV
vector 1434  CAIN.eNodeB1.sctp  "Congestion Window 2:10.0.2.2"  ETV
vector 1435  CAIN.eNodeB1.sctp  "Bandwidth 2:10.0.2.2"  ETV
vector 1438  CAIN.eNodeB1.sctp  "HB Sent 2:10.0.2.2"  ETV
vector 1431  CAIN.eNodeB1.sctp  "RTO 2:10.0.2.2"  ETV
vector 1406  CAIN.eNodeB1.sctp  "Slow Start Threshold 2:10.0.4.1"  ETV
vector 1407  CAIN.eNodeB1.sctp  "Congestion Window 2:10.0.4.1"  ETV
vector 1408  CAIN.eNodeB1.sctp  "Bandwidth 2:10.0.4.1"  ETV
vector 1411  CAIN.eNodeB1.sctp  "HB Sent 2:10.0.4.1"  ETV
vector 1404  CAIN.eNodeB1.sctp  "RTO 2:10.0.4.1"  ETV
vector 1119  CAIN.eNodeB1.sctp  "Slow Start Threshold 2:10.0.5.1"  ETV
vector 1120  CAIN.eNodeB1.sctp  "Congestion Window 2:10.0.5.1"  ETV
vector 1121  CAIN.eNodeB1.sctp  "Bandwidth 2:10.0.5.1"  ETV
vector 1117  CAIN.eNodeB1.sctp  "RTO 2:10.0.5.1"  ETV
vector 1333  CAIN.eNodeB.sctp  "HB ACK Received 6:10.0.5.2"  ETV
vector 1324  CAIN.eNodeB.sctp  "RTT 6:10.0.5.2"  ETV
vector 1230  CAIN.eNodeB1.sctp  "HB ACK Received 5:10.0.5.1"  ETV
vector 1221  CAIN.eNodeB1.sctp  "RTT 5:10.0.5.1"  ETV
vector 1331  CAIN.eNodeB.sctp  "HB ACK Sent 6:10.0.5.2"  ETV
vector 1332  CAIN.eNodeB.sctp  "HB Received 6:10.0.5.2"  ETV
vector 1228  CAIN.eNodeB1.sctp  "HB ACK Sent 5:10.0.5.1"  ETV
vector 1229  CAIN.eNodeB1.sctp  "HB Received 5:10.0.5.1"  ETV
vector 1127  CAIN.eNodeB1.sctp  "HB ACK Received 2:10.0.5.1"  ETV
vector 1118  CAIN.eNodeB1.sctp  "RTT 2:10.0.5.1"  ETV
vector 1078  CAIN.eNodeB.sctp  "HB ACK Received 1:10.0.5.2"  ETV
vector 1069  CAIN.eNodeB.sctp  "RTT 1:10.0.5.2"  ETV
vector 96  CAIN.eNodeB.nic.mac  receivedPacketFromLowerLayer:vector(packetBytes)  ETV
attr interpolationmode  none
attr source  receivedPacketFromLowerLayer
vector 1465  CAIN.eNodeB.sctp  "SendQueue of Association 6"  ETV
vector 1328  CAIN.eNodeB.sctp  "TSN Sent 6:10.0.5.2"  ETV
vector 1335  CAIN.eNodeB.sctp  "Outstanding Bytes 6:10.0.5.2"  ETV
vector 1008  CAIN.eNodeB.sctp  "Outstanding Bytes 3:Total"  ETV
vector 1334  CAIN.eNodeB.sctp  "Queued Sent Bytes 6:10.0.5.2"  ETV
vector 1007  CAIN.eNodeB.sctp  "Queued Sent Bytes 3:Total"  ETV
vector 1123  CAIN.eNodeB1.sctp  "TSN Received 2:10.0.5.1"  ETV
vector 1099  CAIN.eNodeB1.sctp  "Queued Received Bytes 2:Total"  ETV
vector 1095  CAIN.eNodeB1.sctp  "Advertised Receiver Window 2"  ETV
vector 1104  CAIN.eNodeB1.sctp  "Number of Total Gap Blocks Stored 2"  ETV
vector 1105  CAIN.eNodeB1.sctp  "Number of Revokable Gap Blocks Stored 2"  ETV
vector 1106  CAIN.eNodeB1.sctp  "Number of Non-Revokable Gap Blocks Stored 2"  ETV
vector 1107  CAIN.eNodeB1.sctp  "Number of Duplicate TSNs Stored 2"  ETV
vector 1111  CAIN.eNodeB1.sctp  "Length of SACK Sent 2"  ETV
vector 1108  CAIN.eNodeB1.sctp  "Number of Revokable Gap Blocks Sent 2"  ETV
vector 1109  CAIN.eNodeB1.sctp  "Number of Non-Revokable Gap Blocks Sent 2"  ETV
vector 1110  CAIN.eNodeB1.sctp  "Number of Duplicate TSNs Sent 2"  ETV
vector 1115  CAIN.eNodeB1.sctp  "End to End Delay of Association 2"  ETV
vector 199  CAIN.eNodeB1.x2App[0].client  rcvdPk:vector(packetBytes)  ETV
attr interpolationmode  none
attr source  rcvdPk
attr title  "packets received, vector(packetBytes)"
vector 1464  CAIN.eNodeB.sctp  "Number of Gap Blocks in Last SACK of Association 6"  ETV
vector 1009  CAIN.eNodeB.sctp  "Number of Revokable Gap Blocks in SACK 3"  ETV
vector 1010  CAIN.eNodeB.sctp  "Number of Non-Revokable Gap Blocks in SACK 3"  ETV
vector 1345  CAIN.eNodeB.sctp  "TSN Acked CumAck 6:10.0.5.2"  ETV
vector 1311  CAIN.eNodeB.sctp  "Number of Gap Acked Chunks in Last SACK 6:10.0.3.2"  ETV
vector 1312  CAIN.eNodeB.sctp  "Number of Non-Revokable Gap Acked Chunks in Last SACK 6:10.0.3.2"  ETV
vector 1313  CAIN.eNodeB.sctp  "Number of Gap Missed Chunks in Last SACK 6:10.0.3.2"  ETV
vector 1284  CAIN.eNodeB.sctp  "Number of Gap Acked Chunks in Last SACK 6:10.0.4.2"  ETV
vector 1285  CAIN.eNodeB.sctp  "Number of Non-Revokable Gap Acked Chunks in Last SACK 6:10.0.4.2"  ETV
vector 1286  CAIN.eNodeB.sctp  "Number of Gap Missed Chunks in Last SACK 6:10.0.4.2"  ETV
vector 1338  CAIN.eNodeB.sctp  "Number of Gap Acked Chunks in Last SACK 6:10.0.5.2"  ETV
vector 1339  CAIN.eNodeB.sctp  "Number of Non-Revokable Gap Acked Chunks in Last SACK 6:10.0.5.2"  ETV
vector 1340  CAIN.eNodeB.sctp  "Number of Gap Missed Chunks in Last SACK 6:10.0.5.2"  ETV
vector 1019  CAIN.eNodeB.sctp  "Arwnd in Last SACK 3"  ETV
vector 1347  CAIN.eNodeB.sctp  "TSN PseudoCumAck 6:10.0.5.2"  ETV
vector 1348  CAIN.eNodeB.sctp  "TSN RTXPseudoCumAck 6:10.0.5.2"  ETV
vector 1341  CAIN.eNodeB.sctp  "Partial Bytes Acked 6:10.0.5.2"  ETV
vector 1493  CAIN.ueD2DTx[13].tcp  tcpRcvQueueBytes  ETV
vector 1480  CAIN.ueD2DTx[13].tcp  "advertised window"  ETV
vector 1479  CAIN.ueD2DTx[13].tcp  "receive window"  ETV
vector 1482  CAIN.ueD2DTx[13].tcp  "sent ack"  ETV
vector 621  CAIN.ueD2DTx[13].nic.pdcpRrc  receivedPacketFromUpperLayer:vector(packetBytes)  ETV
attr interpolationmode  none
attr source  receivedPacketFromUpperLayer
vector 624  CAIN.ueD2DTx[13].nic.pdcpRrc  sentPacketToLowerLayer:vector(packetBytes)  ETV
attr interpolationmode  none
attr source  sentPacketToLowerLayer
vector 625  CAIN.ueD2DTx[13].nic.mac  receivedPacketFromUpperLayer:vector(packetBytes)  ETV
attr interpolationmode  none
attr source  receivedPacketFromUpperLayer
vector 635  CAIN.ueD2DTx[13].nic.mac  CainHopMessageSent:vector  ETV
attr interpolationmode  none
attr title  "# of Sent CAIN hop message, vector"
vector 628  CAIN.ueD2DTx[13].nic.mac  sentPacketToLowerLayer:vector(packetBytes)  ETV
attr interpolationmode  none
attr source  sentPacketToLowerLayer
vector 1517  CAIN.ueD2DTx[19].tcp  tcpRcvQueueBytes  ETV
vector 1504  CAIN.ueD2DTx[19].tcp  "advertised window"  ETV
vector 1503  CAIN.ueD2DTx[19].tcp  "receive window"  ETV
vector 1506  CAIN.ueD2DTx[19].tcp  "sent ack"  ETV
vector 813  CAIN.ueD2DTx[19].nic.pdcpRrc  receivedPacketFromUpperLayer:vector(packetBytes)  ETV
attr interpolationmode  none
attr source  receivedPacketFromUpperLayer
vector 816  CAIN.ueD2DTx[19].nic.pdcpRrc  sentPacketToLowerLayer:vector(packetBytes)  ETV
attr interpolationmode  none
attr source  sentPacketToLowerLayer
vector 817  CAIN.ueD2DTx[19].nic.mac  receivedPacketFromUpperLayer:vector(packetBytes)  ETV
attr interpolationmode  none
attr source  receivedPacketFromUpperLayer
vector 1541  CAIN.ueD2DTx[12].tcp  tcpRcvQueueBytes  ETV
vector 1528  CAIN.ueD2DTx[12].tcp  "advertised window"  ETV
vector 1527  CAIN.ueD2DTx[12].tcp  "receive window"  ETV
vector 1530  CAIN.ueD2DTx[12].tcp  "sent ack"  ETV
vector 589  CAIN.ueD2DTx[12].nic.pdcpRrc  receivedPacketFromUpperLayer:vector(packetBytes)  ETV
attr interpolationmode  none
attr source  receivedPacketFromUpperLayer
vector 592  CAIN.ueD2DTx[12].nic.pdcpRrc  sentPacketToLowerLayer:vector(packetBytes)  ETV
attr interpolationmode  none
attr source  sentPacketToLowerLayer
vector 593  CAIN.ueD2DTx[12].nic.mac  receivedPacketFromUpperLayer:vector(packetBytes)  ETV
attr interpolationmode  none
attr source  receivedPacketFromUpperLayer
vector 603  CAIN.ueD2DTx[12].nic.mac  CainHopMessageSent:vector  ETV
attr interpolationmode  none
attr title  "# of Sent CAIN hop message, vector"
vector 596  CAIN.ueD2DTx[12].nic.mac  sentPacketToLowerLayer:vector(packetBytes)  ETV
attr interpolationmode  none
attr source  sentPacketToLowerLayer
vector 820  CAIN.ueD2DTx[19].nic.mac  sentPacketToLowerLayer:vector(packetBytes)  ETV
attr interpolationmode  none
attr source  sentPacketToLowerLayer
vector 530  CAIN.ueD2DTx[10].nic.mac  receivedPacketFromLowerLayer:vector(packetBytes)  ETV
attr interpolationmode  none
attr source  receivedPacketFromLowerLayer
vector 532  CAIN.ueD2DTx[10].nic.mac  sentPacketToLowerLayer:vector(packetBytes)  ETV
attr interpolationmode  none
attr source  sentPacketToLowerLayer
vector 274  CAIN.ueD2DTx[2].nic.mac  receivedPacketFromLowerLayer:vector(packetBytes)  ETV
attr interpolationmode  none
attr source  receivedPacketFromLowerLayer
vector 276  CAIN.ueD2DTx[2].nic.mac  sentPacketToLowerLayer:vector(packetBytes)  ETV
attr interpolationmode  none
attr source  sentPacketToLowerLayer
vector 111  CAIN.eNodeB.nic.mac  racpkt:vector  ETV
attr interpolationmode  none
attr title  "eNB received racpkt message, vector"
vector 112  CAIN.eNodeB.nic.mac  racDistanceSignal:vector  ETV
attr interpolationmode  none
attr title  "Rac distance to enb, vector"
vector 113  CAIN.eNodeB.nic.mac  racServedDevsSignal:vector  ETV
attr interpolationmode  none
attr title  "# of devices served on rac arriavall, vector"
vector 98  CAIN.eNodeB.nic.mac  sentPacketToLowerLayer:vector(packetBytes)  ETV
attr interpolationmode  none
attr source  sentPacketToLowerLayer
vector 722  CAIN.ueD2DTx[16].nic.mac  receivedPacketFromLowerLayer:vector(packetBytes)  ETV
attr interpolationmode  none
attr source  receivedPacketFromLowerLayer
vector 724  CAIN.ueD2DTx[16].nic.mac  sentPacketToLowerLayer:vector(packetBytes)  ETV
attr interpolationmode  none
attr source  sentPacketToLowerLayer
vector 338  CAIN.ueD2DTx[4].nic.mac  receivedPacketFromLowerLayer:vector(packetBytes)  ETV
attr interpolationmode  none
attr source  receivedPacketFromLowerLayer
vector 340  CAIN.ueD2DTx[4].nic.mac  sentPacketToLowerLayer:vector(packetBytes)  ETV
attr interpolationmode  none
attr source  sentPacketToLowerLayer
vector 818  CAIN.ueD2DTx[19].nic.mac  receivedPacketFromLowerLayer:vector(packetBytes)  ETV
attr interpolationmode  none
attr source  receivedPacketFromLowerLayer
vector 106  CAIN.eNodeB.nic.mac  DistanceSignal:vector  ETV
attr interpolationmode  none
attr title  "Distance to enb, vector"
vector 101  CAIN.eNodeB.nic.mac  CainHopMessage:vector  ETV
attr interpolationmode  none
attr title  "eNB received CAIN hop message, vector"
vector 729  CAIN.ueD2DTx[16].nic.mac  DropedHopMessage:vector  ETV
attr interpolationmode  none
attr title  "Droped Hop CAIN message due to RB not available, vector"
vector 819  CAIN.ueD2DTx[19].nic.mac  sentPacketToUpperLayer:vector(packetBytes)  ETV
attr interpolationmode  none
attr source  sentPacketToUpperLayer
vector 345  CAIN.ueD2DTx[4].nic.mac  DropedHopMessage:vector  ETV
attr interpolationmode  none
attr title  "Droped Hop CAIN message due to RB not available, vector"
vector 115  CAIN.eNodeB.nic.phy  averageCqiUlvect:vector  ETV
attr source  averageCqiUlvect
attr title  "Average Cqi reported in UL, vector"
attr unit  cqi
vector 1565  CAIN.ueD2DTx[11].tcp  tcpRcvQueueBytes  ETV
vector 1552  CAIN.ueD2DTx[11].tcp  "advertised window"  ETV
vector 1551  CAIN.ueD2DTx[11].tcp  "receive window"  ETV
vector 1554  CAIN.ueD2DTx[11].tcp  "sent ack"  ETV
vector 557  CAIN.ueD2DTx[11].nic.pdcpRrc  receivedPacketFromUpperLayer:vector(packetBytes)  ETV
attr interpolationmode  none
attr source  receivedPacketFromUpperLayer
vector 560  CAIN.ueD2DTx[11].nic.pdcpRrc  sentPacketToLowerLayer:vector(packetBytes)  ETV
attr interpolationmode  none
attr source  sentPacketToLowerLayer
vector 561  CAIN.ueD2DTx[11].nic.mac  receivedPacketFromUpperLayer:vector(packetBytes)  ETV
attr interpolationmode  none
attr source  receivedPacketFromUpperLayer
vector 97  CAIN.eNodeB.nic.mac  sentPacketToUpperLayer:vector(packetBytes)  ETV
attr interpolationmode  none
attr source  sentPacketToUpperLayer
vector 99  CAIN.eNodeB.nic.mac  measuredItbs:vector  ETV
attr source  measuredItbs
attr title  "TBS index, vector"
attr unit  ""
vector 92  CAIN.eNodeB.nic.pdcpRrc  receivedPacketFromLowerLayer:vector(packetBytes)  ETV
attr interpolationmode  none
attr source  receivedPacketFromLowerLayer
vector 93  CAIN.eNodeB.nic.pdcpRrc  sentPacketToUpperLayer:vector(packetBytes)  ETV
attr interpolationmode  none
attr source  sentPacketToUpperLayer
vector 86  CAIN.eNodeB.udp  sentPk:vector(packetBytes)  ETV
attr interpolationmode  none
attr source  sentPk
attr title  "packets sent, vector(packetBytes)"
vector 564  CAIN.ueD2DTx[11].nic.mac  sentPacketToLowerLayer:vector(packetBytes)  ETV
attr interpolationmode  none
attr source  sentPacketToLowerLayer
vector 145  CAIN.eNodeB1.udp  rcvdPk:vector(packetBytes)  ETV
attr interpolationmode  none
attr source  rcvdPk
attr title  "packets received, vector(packetBytes)"
vector 146  CAIN.eNodeB1.udp  passedUpPk:vector(count)  ETV
attr interpolationmode  none
attr title  "packets passed up, vector(count)"
vector 562  CAIN.ueD2DTx[11].nic.mac  receivedPacketFromLowerLayer:vector(packetBytes)  ETV
attr interpolationmode  none
attr source  receivedPacketFromLowerLayer
vector 1589  CAIN.ueD2DTx[7].tcp  tcpRcvQueueBytes  ETV
vector 1576  CAIN.ueD2DTx[7].tcp  "advertised window"  ETV
vector 1575  CAIN.ueD2DTx[7].tcp  "receive window"  ETV
vector 1578  CAIN.ueD2DTx[7].tcp  "sent ack"  ETV
vector 429  CAIN.ueD2DTx[7].nic.pdcpRrc  receivedPacketFromUpperLayer:vector(packetBytes)  ETV
attr interpolationmode  none
attr source  receivedPacketFromUpperLayer
vector 432  CAIN.ueD2DTx[7].nic.pdcpRrc  sentPacketToLowerLayer:vector(packetBytes)  ETV
attr interpolationmode  none
attr source  sentPacketToLowerLayer
vector 433  CAIN.ueD2DTx[7].nic.mac  receivedPacketFromUpperLayer:vector(packetBytes)  ETV
attr interpolationmode  none
attr source  receivedPacketFromUpperLayer
vector 436  CAIN.ueD2DTx[7].nic.mac  sentPacketToLowerLayer:vector(packetBytes)  ETV
attr interpolationmode  none
attr source  sentPacketToLowerLayer
vector 1613  CAIN.ueD2DTx[6].tcp  tcpRcvQueueBytes  ETV
vector 1600  CAIN.ueD2DTx[6].tcp  "advertised window"  ETV
vector 1599  CAIN.ueD2DTx[6].tcp  "receive window"  ETV
vector 1602  CAIN.ueD2DTx[6].tcp  "sent ack"  ETV
vector 397  CAIN.ueD2DTx[6].nic.pdcpRrc  receivedPacketFromUpperLayer:vector(packetBytes)  ETV
attr interpolationmode  none
attr source  receivedPacketFromUpperLayer
vector 400  CAIN.ueD2DTx[6].nic.pdcpRrc  sentPacketToLowerLayer:vector(packetBytes)  ETV
attr interpolationmode  none
attr source  sentPacketToLowerLayer
vector 401  CAIN.ueD2DTx[6].nic.mac  receivedPacketFromUpperLayer:vector(packetBytes)  ETV
attr interpolationmode  none
attr source  receivedPacketFromUpperLayer
vector 411  CAIN.ueD2DTx[6].nic.mac  CainHopMessageSent:vector  ETV
attr interpolationmode  none
attr title  "# of Sent CAIN hop message, vector"
vector 404  CAIN.ueD2DTx[6].nic.mac  sentPacketToLowerLayer:vector(packetBytes)  ETV
attr interpolationmode  none
attr source  sentPacketToLowerLayer
vector 563  CAIN.ueD2DTx[11].nic.mac  sentPacketToUpperLayer:vector(packetBytes)  ETV
attr interpolationmode  none
attr source  sentPacketToUpperLayer
vector 1637  CAIN.ueD2DTx[20].tcp  tcpRcvQueueBytes  ETV
vector 1624  CAIN.ueD2DTx[20].tcp  "advertised window"  ETV
vector 1623  CAIN.ueD2DTx[20].tcp  "receive window"  ETV
vector 1626  CAIN.ueD2DTx[20].tcp  "sent ack"  ETV
vector 845  CAIN.ueD2DTx[20].nic.pdcpRrc  receivedPacketFromUpperLayer:vector(packetBytes)  ETV
attr interpolationmode  none
attr source  receivedPacketFromUpperLayer
vector 848  CAIN.ueD2DTx[20].nic.pdcpRrc  sentPacketToLowerLayer:vector(packetBytes)  ETV
attr interpolationmode  none
attr source  sentPacketToLowerLayer
vector 849  CAIN.ueD2DTx[20].nic.mac  receivedPacketFromUpperLayer:vector(packetBytes)  ETV
attr interpolationmode  none
attr source  receivedPacketFromUpperLayer
vector 859  CAIN.ueD2DTx[20].nic.mac  CainHopMessageSent:vector  ETV
attr interpolationmode  none
attr title  "# of Sent CAIN hop message, vector"
vector 852  CAIN.ueD2DTx[20].nic.mac  sentPacketToLowerLayer:vector(packetBytes)  ETV
attr interpolationmode  none
attr source  sentPacketToLowerLayer
vector 914  CAIN.ueD2DTx[22].nic.mac  receivedPacketFromLowerLayer:vector(packetBytes)  ETV
attr interpolationmode  none
attr source  receivedPacketFromLowerLayer
vector 916  CAIN.ueD2DTx[22].nic.mac  sentPacketToLowerLayer:vector(packetBytes)  ETV
attr interpolationmode  none
attr source  sentPacketToLowerLayer
vector 434  CAIN.ueD2DTx[7].nic.mac  receivedPacketFromLowerLayer:vector(packetBytes)  ETV
attr interpolationmode  none
attr source  receivedPacketFromLowerLayer
vector 498  CAIN.ueD2DTx[9].nic.mac  receivedPacketFromLowerLayer:vector(packetBytes)  ETV
attr interpolationmode  none
attr source  receivedPacketFromLowerLayer
vector 500  CAIN.ueD2DTx[9].nic.mac  sentPacketToLowerLayer:vector(packetBytes)  ETV
attr interpolationmode  none
attr source  sentPacketToLowerLayer
vector 435  CAIN.ueD2DTx[7].nic.mac  sentPacketToUpperLayer:vector(packetBytes)  ETV
attr interpolationmode  none
attr source  sentPacketToUpperLayer
vector 505  CAIN.ueD2DTx[9].nic.mac  DropedHopMessage:vector  ETV
attr interpolationmode  none
attr title  "Droped Hop CAIN message due to RB not available, vector"
vector 1661  CAIN.ueD2DTx[2].tcp  tcpRcvQueueBytes  ETV
vector 1648  CAIN.ueD2DTx[2].tcp  "advertised window"  ETV
vector 1647  CAIN.ueD2DTx[2].tcp  "receive window"  ETV
vector 1650  CAIN.ueD2DTx[2].tcp  "sent ack"  ETV
vector 269  CAIN.ueD2DTx[2].nic.pdcpRrc  receivedPacketFromUpperLayer:vector(packetBytes)  ETV
attr interpolationmode  none
attr source  receivedPacketFromUpperLayer
vector 272  CAIN.ueD2DTx[2].nic.pdcpRrc  sentPacketToLowerLayer:vector(packetBytes)  ETV
attr interpolationmode  none
attr source  sentPacketToLowerLayer
vector 273  CAIN.ueD2DTx[2].nic.mac  receivedPacketFromUpperLayer:vector(packetBytes)  ETV
attr interpolationmode  none
attr source  receivedPacketFromUpperLayer
vector 283  CAIN.ueD2DTx[2].nic.mac  CainHopMessageSent:vector  ETV
attr interpolationmode  none
attr title  "# of Sent CAIN hop message, vector"
vector 242  CAIN.ueD2DTx[1].nic.mac  receivedPacketFromLowerLayer:vector(packetBytes)  ETV
attr interpolationmode  none
attr source  receivedPacketFromLowerLayer
vector 244  CAIN.ueD2DTx[1].nic.mac  sentPacketToLowerLayer:vector(packetBytes)  ETV
attr interpolationmode  none
attr source  sentPacketToLowerLayer
vector 1685  CAIN.ueD2DTx[10].tcp  tcpRcvQueueBytes  ETV
vector 1672  CAIN.ueD2DTx[10].tcp  "advertised window"  ETV
vector 1671  CAIN.ueD2DTx[10].tcp  "receive window"  ETV
vector 1674  CAIN.ueD2DTx[10].tcp  "sent ack"  ETV
vector 525  CAIN.ueD2DTx[10].nic.pdcpRrc  receivedPacketFromUpperLayer:vector(packetBytes)  ETV
attr interpolationmode  none
attr source  receivedPacketFromUpperLayer
vector 528  CAIN.ueD2DTx[10].nic.pdcpRrc  sentPacketToLowerLayer:vector(packetBytes)  ETV
attr interpolationmode  none
attr source  sentPacketToLowerLayer
vector 529  CAIN.ueD2DTx[10].nic.mac  receivedPacketFromUpperLayer:vector(packetBytes)  ETV
attr interpolationmode  none
attr source  receivedPacketFromUpperLayer
vector 1709  CAIN.ueD2DTx[14].tcp  tcpRcvQueueBytes  ETV
vector 1696  CAIN.ueD2DTx[14].tcp  "advertised window"  ETV
vector 1695  CAIN.ueD2DTx[14].tcp  "receive window"  ETV
vector 1698  CAIN.ueD2DTx[14].tcp  "sent ack"  ETV
vector 653  CAIN.ueD2DTx[14].nic.pdcpRrc  receivedPacketFromUpperLayer:vector(packetBytes)  ETV
attr interpolationmode  none
attr source  receivedPacketFromUpperLayer
vector 656  CAIN.ueD2DTx[14].nic.pdcpRrc  sentPacketToLowerLayer:vector(packetBytes)  ETV
attr interpolationmode  none
attr source  sentPacketToLowerLayer
vector 657  CAIN.ueD2DTx[14].nic.mac  receivedPacketFromUpperLayer:vector(packetBytes)  ETV
attr interpolationmode  none
attr source  receivedPacketFromUpperLayer
vector 538  CAIN.ueD2DTx[10].nic.mac  CainMessageSent:vector  ETV
attr interpolationmode  none
attr title  "# of Sent CAIN message, vector"
vector 667  CAIN.ueD2DTx[14].nic.mac  CainHopMessageSent:vector  ETV
attr interpolationmode  none
attr title  "# of Sent CAIN hop message, vector"
vector 660  CAIN.ueD2DTx[14].nic.mac  sentPacketToLowerLayer:vector(packetBytes)  ETV
attr interpolationmode  none
attr source  sentPacketToLowerLayer
vector 100  CAIN.eNodeB.nic.mac  CainMessage:vector  ETV
attr interpolationmode  none
attr title  "eNB received CAIN message, vector"
vector 1733  CAIN.ueD2DTx[4].tcp  tcpRcvQueueBytes  ETV
vector 1720  CAIN.ueD2DTx[4].tcp  "advertised window"  ETV
vector 1719  CAIN.ueD2DTx[4].tcp  "receive window"  ETV
vector 1722  CAIN.ueD2DTx[4].tcp  "sent ack"  ETV
vector 333  CAIN.ueD2DTx[4].nic.pdcpRrc  receivedPacketFromUpperLayer:vector(packetBytes)  ETV
attr interpolationmode  none
attr source  receivedPacketFromUpperLayer
vector 336  CAIN.ueD2DTx[4].nic.pdcpRrc  sentPacketToLowerLayer:vector(packetBytes)  ETV
attr interpolationmode  none
attr source  sentPacketToLowerLayer
vector 337  CAIN.ueD2DTx[4].nic.mac  receivedPacketFromUpperLayer:vector(packetBytes)  ETV
attr interpolationmode  none
attr source  receivedPacketFromUpperLayer
vector 728  CAIN.ueD2DTx[16].nic.mac  DropedCainMessage:vector  ETV
attr interpolationmode  none
attr title  "Droped CAIN message due to RB not available, vector"
vector 1757  CAIN.ueD2DTx[21].tcp  tcpRcvQueueBytes  ETV
vector 1744  CAIN.ueD2DTx[21].tcp  "advertised window"  ETV
vector 1743  CAIN.ueD2DTx[21].tcp  "receive window"  ETV
vector 1746  CAIN.ueD2DTx[21].tcp  "sent ack"  ETV
vector 877  CAIN.ueD2DTx[21].nic.pdcpRrc  receivedPacketFromUpperLayer:vector(packetBytes)  ETV
attr interpolationmode  none
attr source  receivedPacketFromUpperLayer
vector 880  CAIN.ueD2DTx[21].nic.pdcpRrc  sentPacketToLowerLayer:vector(packetBytes)  ETV
attr interpolationmode  none
attr source  sentPacketToLowerLayer
vector 881  CAIN.ueD2DTx[21].nic.mac  receivedPacketFromUpperLayer:vector(packetBytes)  ETV
attr interpolationmode  none
attr source  receivedPacketFromUpperLayer
vector 891  CAIN.ueD2DTx[21].nic.mac  CainHopMessageSent:vector  ETV
attr interpolationmode  none
attr title  "# of Sent CAIN hop message, vector"
vector 884  CAIN.ueD2DTx[21].nic.mac  sentPacketToLowerLayer:vector(packetBytes)  ETV
attr interpolationmode  none
attr source  sentPacketToLowerLayer
vector 1781  CAIN.ueD2DTx[24].tcp  tcpRcvQueueBytes  ETV
vector 1768  CAIN.ueD2DTx[24].tcp  "advertised window"  ETV
vector 1767  CAIN.ueD2DTx[24].tcp  "receive window"  ETV
vector 1770  CAIN.ueD2DTx[24].tcp  "sent ack"  ETV
vector 973  CAIN.ueD2DTx[24].nic.pdcpRrc  receivedPacketFromUpperLayer:vector(packetBytes)  ETV
attr interpolationmode  none
attr source  receivedPacketFromUpperLayer
vector 976  CAIN.ueD2DTx[24].nic.pdcpRrc  sentPacketToLowerLayer:vector(packetBytes)  ETV
attr interpolationmode  none
attr source  sentPacketToLowerLayer
vector 977  CAIN.ueD2DTx[24].nic.mac  receivedPacketFromUpperLayer:vector(packetBytes)  ETV
attr interpolationmode  none
attr source  receivedPacketFromUpperLayer
vector 339  CAIN.ueD2DTx[4].nic.mac  sentPacketToUpperLayer:vector(packetBytes)  ETV
attr interpolationmode  none
attr source  sentPacketToUpperLayer
vector 980  CAIN.ueD2DTx[24].nic.mac  sentPacketToLowerLayer:vector(packetBytes)  ETV
attr interpolationmode  none
attr source  sentPacketToLowerLayer
vector 109  CAIN.eNodeB.nic.mac  ServedHopDevs:vector  ETV
attr interpolationmode  none
attr title  "# of devices served on hop forwarding, vector"
vector 978  CAIN.ueD2DTx[24].nic.mac  receivedPacketFromLowerLayer:vector(packetBytes)  ETV
attr interpolationmode  none
attr source  receivedPacketFromLowerLayer
vector 979  CAIN.ueD2DTx[24].nic.mac  sentPacketToUpperLayer:vector(packetBytes)  ETV
attr interpolationmode  none
attr source  sentPacketToUpperLayer
vector 690  CAIN.ueD2DTx[15].nic.mac  receivedPacketFromLowerLayer:vector(packetBytes)  ETV
attr interpolationmode  none
attr source  receivedPacketFromLowerLayer
vector 692  CAIN.ueD2DTx[15].nic.mac  sentPacketToLowerLayer:vector(packetBytes)  ETV
attr interpolationmode  none
attr source  sentPacketToLowerLayer
vector 1805  CAIN.ueD2DTx[8].tcp  tcpRcvQueueBytes  ETV
vector 1792  CAIN.ueD2DTx[8].tcp  "advertised window"  ETV
vector 1791  CAIN.ueD2DTx[8].tcp  "receive window"  ETV
vector 1794  CAIN.ueD2DTx[8].tcp  "sent ack"  ETV
vector 461  CAIN.ueD2DTx[8].nic.pdcpRrc  receivedPacketFromUpperLayer:vector(packetBytes)  ETV
attr interpolationmode  none
attr source  receivedPacketFromUpperLayer
vector 464  CAIN.ueD2DTx[8].nic.pdcpRrc  sentPacketToLowerLayer:vector(packetBytes)  ETV
attr interpolationmode  none
attr source  sentPacketToLowerLayer
vector 465  CAIN.ueD2DTx[8].nic.mac  receivedPacketFromUpperLayer:vector(packetBytes)  ETV
attr interpolationmode  none
attr source  receivedPacketFromUpperLayer
vector 475  CAIN.ueD2DTx[8].nic.mac  CainHopMessageSent:vector  ETV
attr interpolationmode  none
attr title  "# of Sent CAIN hop message, vector"
vector 468  CAIN.ueD2DTx[8].nic.mac  sentPacketToLowerLayer:vector(packetBytes)  ETV
attr interpolationmode  none
attr source  sentPacketToLowerLayer
vector 697  CAIN.ueD2DTx[15].nic.mac  DropedHopMessage:vector  ETV
attr interpolationmode  none
attr title  "Droped Hop CAIN message due to RB not available, vector"
vector 1829  CAIN.ueD2DTx[9].tcp  tcpRcvQueueBytes  ETV
vector 1816  CAIN.ueD2DTx[9].tcp  "advertised window"  ETV
vector 1815  CAIN.ueD2DTx[9].tcp  "receive window"  ETV
vector 1818  CAIN.ueD2DTx[9].tcp  "sent ack"  ETV
vector 493  CAIN.ueD2DTx[9].nic.pdcpRrc  receivedPacketFromUpperLayer:vector(packetBytes)  ETV
attr interpolationmode  none
attr source  receivedPacketFromUpperLayer
vector 496  CAIN.ueD2DTx[9].nic.pdcpRrc  sentPacketToLowerLayer:vector(packetBytes)  ETV
attr interpolationmode  none
attr source  sentPacketToLowerLayer
vector 497  CAIN.ueD2DTx[9].nic.mac  receivedPacketFromUpperLayer:vector(packetBytes)  ETV
attr interpolationmode  none
attr source  receivedPacketFromUpperLayer
vector 1853  CAIN.ueD2DTx[15].tcp  tcpRcvQueueBytes  ETV
vector 1840  CAIN.ueD2DTx[15].tcp  "advertised window"  ETV
vector 1839  CAIN.ueD2DTx[15].tcp  "receive window"  ETV
vector 1842  CAIN.ueD2DTx[15].tcp  "sent ack"  ETV
vector 685  CAIN.ueD2DTx[15].nic.pdcpRrc  receivedPacketFromUpperLayer:vector(packetBytes)  ETV
attr interpolationmode  none
attr source  receivedPacketFromUpperLayer
vector 688  CAIN.ueD2DTx[15].nic.pdcpRrc  sentPacketToLowerLayer:vector(packetBytes)  ETV
attr interpolationmode  none
attr source  sentPacketToLowerLayer
vector 689  CAIN.ueD2DTx[15].nic.mac  receivedPacketFromUpperLayer:vector(packetBytes)  ETV
attr interpolationmode  none
attr source  receivedPacketFromUpperLayer
vector 1877  CAIN.ueD2DTx[17].tcp  tcpRcvQueueBytes  ETV
vector 1864  CAIN.ueD2DTx[17].tcp  "advertised window"  ETV
vector 1863  CAIN.ueD2DTx[17].tcp  "receive window"  ETV
vector 1866  CAIN.ueD2DTx[17].tcp  "sent ack"  ETV
vector 749  CAIN.ueD2DTx[17].nic.pdcpRrc  receivedPacketFromUpperLayer:vector(packetBytes)  ETV
attr interpolationmode  none
attr source  receivedPacketFromUpperLayer
vector 752  CAIN.ueD2DTx[17].nic.pdcpRrc  sentPacketToLowerLayer:vector(packetBytes)  ETV
attr interpolationmode  none
attr source  sentPacketToLowerLayer
vector 753  CAIN.ueD2DTx[17].nic.mac  receivedPacketFromUpperLayer:vector(packetBytes)  ETV
attr interpolationmode  none
attr source  receivedPacketFromUpperLayer
vector 1901  CAIN.ueD2DTx[0].tcp  tcpRcvQueueBytes  ETV
vector 1888  CAIN.ueD2DTx[0].tcp  "advertised window"  ETV
vector 1887  CAIN.ueD2DTx[0].tcp  "receive window"  ETV
vector 1890  CAIN.ueD2DTx[0].tcp  "sent ack"  ETV
vector 205  CAIN.ueD2DTx[0].nic.pdcpRrc  receivedPacketFromUpperLayer:vector(packetBytes)  ETV
attr interpolationmode  none
attr source  receivedPacketFromUpperLayer
vector 208  CAIN.ueD2DTx[0].nic.pdcpRrc  sentPacketToLowerLayer:vector(packetBytes)  ETV
attr interpolationmode  none
attr source  sentPacketToLowerLayer
vector 209  CAIN.ueD2DTx[0].nic.mac  receivedPacketFromUpperLayer:vector(packetBytes)  ETV
attr interpolationmode  none
attr source  receivedPacketFromUpperLayer
vector 219  CAIN.ueD2DTx[0].nic.mac  CainHopMessageSent:vector  ETV
attr interpolationmode  none
attr title  "# of Sent CAIN hop message, vector"
vector 212  CAIN.ueD2DTx[0].nic.mac  sentPacketToLowerLayer:vector(packetBytes)  ETV
attr interpolationmode  none
attr source  sentPacketToLowerLayer
vector 499  CAIN.ueD2DTx[9].nic.mac  sentPacketToUpperLayer:vector(packetBytes)  ETV
attr interpolationmode  none
attr source  sentPacketToUpperLayer
vector 763  CAIN.ueD2DTx[17].nic.mac  CainHopMessageSent:vector  ETV
attr interpolationmode  none
attr title  "# of Sent CAIN hop message, vector"
vector 756  CAIN.ueD2DTx[17].nic.mac  sentPacketToLowerLayer:vector(packetBytes)  ETV
attr interpolationmode  none
attr source  sentPacketToLowerLayer
vector 691  CAIN.ueD2DTx[15].nic.mac  sentPacketToUpperLayer:vector(packetBytes)  ETV
attr interpolationmode  none
attr source  sentPacketToUpperLayer
vector 149  CAIN.eNodeB1.nic.pdcpRrc  receivedPacketFromUpperLayer:vector(packetBytes)  ETV
attr interpolationmode  none
attr source  receivedPacketFromUpperLayer
vector 152  CAIN.eNodeB1.nic.pdcpRrc  sentPacketToLowerLayer:vector(packetBytes)  ETV
attr interpolationmode  none
attr source  sentPacketToLowerLayer
vector 1461  CAIN.eNodeB1.sctp  "SendQueue of Association 5"  ETV
vector 1225  CAIN.eNodeB1.sctp  "TSN Sent 5:10.0.5.1"  ETV
vector 1232  CAIN.eNodeB1.sctp  "Outstanding Bytes 5:10.0.5.1"  ETV
vector 1030  CAIN.eNodeB1.sctp  "Outstanding Bytes 4:Total"  ETV
vector 1231  CAIN.eNodeB1.sctp  "Queued Sent Bytes 5:10.0.5.1"  ETV
vector 1029  CAIN.eNodeB1.sctp  "Queued Sent Bytes 4:Total"  ETV
vector 153  CAIN.eNodeB1.nic.mac  receivedPacketFromUpperLayer:vector(packetBytes)  ETV
attr interpolationmode  none
attr source  receivedPacketFromUpperLayer
vector 117  CAIN.eNodeB.pppIf.queue  rcvdPk:vector(packetBytes)  ETV
attr interpolationmode  none
attr title  "received packets, vector(packetBytes)"
vector 119  CAIN.eNodeB.pppIf.queue  queueingTime:vector  ETV
attr interpolationmode  none
attr title  "queueing time, vector"
vector 126  CAIN.eNodeB.pppIf.ppp  rcvdPkFromHL:vector(packetBytes)  ETV
attr interpolationmode  none
attr source  packetReceivedFromUpper
attr title  "packets received from higher layer, vector(packetBytes)"
vector 122  CAIN.eNodeB.pppIf.ppp  txPk:vector(packetBytes)  ETV
attr interpolationmode  none
attr source  packetSentToLower
attr title  "packets transmitted, vector(packetBytes)"
vector 1074  CAIN.eNodeB.sctp  "TSN Received 1:10.0.5.2"  ETV
vector 1050  CAIN.eNodeB.sctp  "Queued Received Bytes 1:Total"  ETV
vector 1046  CAIN.eNodeB.sctp  "Advertised Receiver Window 1"  ETV
vector 1055  CAIN.eNodeB.sctp  "Number of Total Gap Blocks Stored 1"  ETV
vector 1056  CAIN.eNodeB.sctp  "Number of Revokable Gap Blocks Stored 1"  ETV
vector 1057  CAIN.eNodeB.sctp  "Number of Non-Revokable Gap Blocks Stored 1"  ETV
vector 1058  CAIN.eNodeB.sctp  "Number of Duplicate TSNs Stored 1"  ETV
vector 1062  CAIN.eNodeB.sctp  "Length of SACK Sent 1"  ETV
vector 1059  CAIN.eNodeB.sctp  "Number of Revokable Gap Blocks Sent 1"  ETV
vector 1060  CAIN.eNodeB.sctp  "Number of Non-Revokable Gap Blocks Sent 1"  ETV
vector 1061  CAIN.eNodeB.sctp  "Number of Duplicate TSNs Sent 1"  ETV
vector 1066  CAIN.eNodeB.sctp  "End to End Delay of Association 1"  ETV
vector 141  CAIN.eNodeB.x2App[0].client  rcvdPk:vector(packetBytes)  ETV
attr interpolationmode  none
attr source  rcvdPk
attr title  "packets received, vector(packetBytes)"
vector 59  CAIN.pgw.ppp[0].ppp  rxPkOk:vector(packetBytes)  ETV
attr interpolationmode  none
attr source  rxPkOk
attr title  "packets received OK, vector(packetBytes)"
vector 63  CAIN.pgw.ppp[0].ppp  passedUpPk:vector(packetBytes)  ETV
attr interpolationmode  none
attr source  packetSentToUpper
attr title  "packets passed to higher layer, vector(packetBytes)"
vector 44  CAIN.pgw.udp  rcvdPk:vector(packetBytes)  ETV
attr interpolationmode  none
attr source  rcvdPk
attr title  "packets received, vector(packetBytes)"
vector 45  CAIN.pgw.udp  passedUpPk:vector(count)  ETV
attr interpolationmode  none
attr title  "packets passed up, vector(count)"
vector 43  CAIN.pgw.udp  sentPk:vector(packetBytes)  ETV
attr interpolationmode  none
attr source  sentPk
attr title  "packets sent, vector(packetBytes)"
vector 64  CAIN.pgw.ppp[1].queue  rcvdPk:vector(packetBytes)  ETV
attr interpolationmode  none
attr title  "received packets, vector(packetBytes)"
vector 66  CAIN.pgw.ppp[1].queue  queueingTime:vector  ETV
attr interpolationmode  none
attr title  "queueing time, vector"
vector 73  CAIN.pgw.ppp[1].ppp  rcvdPkFromHL:vector(packetBytes)  ETV
attr interpolationmode  none
attr source  packetReceivedFromUpper
attr title  "packets received from higher layer, vector(packetBytes)"
vector 69  CAIN.pgw.ppp[1].ppp  txPk:vector(packetBytes)  ETV
attr interpolationmode  none
attr source  packetSentToLower
attr title  "packets transmitted, vector(packetBytes)"
vector 1460  CAIN.eNodeB1.sctp  "Number of Gap Blocks in Last SACK of Association 5"  ETV
vector 1031  CAIN.eNodeB1.sctp  "Number of Revokable Gap Blocks in SACK 4"  ETV
vector 1032  CAIN.eNodeB1.sctp  "Number of Non-Revokable Gap Blocks in SACK 4"  ETV
vector 1242  CAIN.eNodeB1.sctp  "TSN Acked CumAck 5:10.0.5.1"  ETV
vector 1208  CAIN.eNodeB1.sctp  "Number of Gap Acked Chunks in Last SACK 5:10.0.2.2"  ETV
vector 1209  CAIN.eNodeB1.sctp  "Number of Non-Revokable Gap Acked Chunks in Last SACK 5:10.0.2.2"  ETV
vector 1210  CAIN.eNodeB1.sctp  "Number of Gap Missed Chunks in Last SACK 5:10.0.2.2"  ETV
vector 1181  CAIN.eNodeB1.sctp  "Number of Gap Acked Chunks in Last SACK 5:10.0.4.1"  ETV
vector 1182  CAIN.eNodeB1.sctp  "Number of Non-Revokable Gap Acked Chunks in Last SACK 5:10.0.4.1"  ETV
vector 1183  CAIN.eNodeB1.sctp  "Number of Gap Missed Chunks in Last SACK 5:10.0.4.1"  ETV
vector 1235  CAIN.eNodeB1.sctp  "Number of Gap Acked Chunks in Last SACK 5:10.0.5.1"  ETV
vector 1236  CAIN.eNodeB1.sctp  "Number of Non-Revokable Gap Acked Chunks in Last SACK 5:10.0.5.1"  ETV
vector 1237  CAIN.eNodeB1.sctp  "Number of Gap Missed Chunks in Last SACK 5:10.0.5.1"  ETV
vector 1041  CAIN.eNodeB1.sctp  "Arwnd in Last SACK 4"  ETV
vector 1244  CAIN.eNodeB1.sctp  "TSN PseudoCumAck 5:10.0.5.1"  ETV
vector 1245  CAIN.eNodeB1.sctp  "TSN RTXPseudoCumAck 5:10.0.5.1"  ETV
vector 1238  CAIN.eNodeB1.sctp  "Partial Bytes Acked 5:10.0.5.1"  ETV
vector 181  CAIN.eNodeB1.pppIf.ppp  rxPkOk:vector(packetBytes)  ETV
attr interpolationmode  none
attr source  rxPkOk
attr title  "packets received OK, vector(packetBytes)"
vector 185  CAIN.eNodeB1.pppIf.ppp  passedUpPk:vector(packetBytes)  ETV
attr interpolationmode  none
attr source  packetSentToUpper
attr title  "packets passed to higher layer, vector(packetBytes)"
vector 1925  CAIN.ueD2DTx[1].tcp  tcpRcvQueueBytes  ETV
vector 1912  CAIN.ueD2DTx[1].tcp  "advertised window"  ETV
vector 1911  CAIN.ueD2DTx[1].tcp  "receive window"  ETV
vector 1914  CAIN.ueD2DTx[1].tcp  "sent ack"  ETV
vector 237  CAIN.ueD2DTx[1].nic.pdcpRrc  receivedPacketFromUpperLayer:vector(packetBytes)  ETV
attr interpolationmode  none
attr source  receivedPacketFromUpperLayer
vector 240  CAIN.ueD2DTx[1].nic.pdcpRrc  sentPacketToLowerLayer:vector(packetBytes)  ETV
attr interpolationmode  none
attr source  sentPacketToLowerLayer
vector 241  CAIN.ueD2DTx[1].nic.mac  receivedPacketFromUpperLayer:vector(packetBytes)  ETV
attr interpolationmode  none
attr source  receivedPacketFromUpperLayer
vector 251  CAIN.ueD2DTx[1].nic.mac  CainHopMessageSent:vector  ETV
attr interpolationmode  none
attr title  "# of Sent CAIN hop message, vector"
vector 1949  CAIN.ueD2DTx[5].tcp  tcpRcvQueueBytes  ETV
vector 1936  CAIN.ueD2DTx[5].tcp  "advertised window"  ETV
vector 1935  CAIN.ueD2DTx[5].tcp  "receive window"  ETV
vector 1938  CAIN.ueD2DTx[5].tcp  "sent ack"  ETV
vector 365  CAIN.ueD2DTx[5].nic.pdcpRrc  receivedPacketFromUpperLayer:vector(packetBytes)  ETV
attr interpolationmode  none
attr source  receivedPacketFromUpperLayer
vector 368  CAIN.ueD2DTx[5].nic.pdcpRrc  sentPacketToLowerLayer:vector(packetBytes)  ETV
attr interpolationmode  none
attr source  sentPacketToLowerLayer
vector 369  CAIN.ueD2DTx[5].nic.mac  receivedPacketFromUpperLayer:vector(packetBytes)  ETV
attr interpolationmode  none
attr source  receivedPacketFromUpperLayer
vector 1973  CAIN.ueD2DTx[22].tcp  tcpRcvQueueBytes  ETV
vector 1960  CAIN.ueD2DTx[22].tcp  "advertised window"  ETV
vector 1959  CAIN.ueD2DTx[22].tcp  "receive window"  ETV
vector 1962  CAIN.ueD2DTx[22].tcp  "sent ack"  ETV
vector 909  CAIN.ueD2DTx[22].nic.pdcpRrc  receivedPacketFromUpperLayer:vector(packetBytes)  ETV
attr interpolationmode  none
attr source  receivedPacketFromUpperLayer
vector 912  CAIN.ueD2DTx[22].nic.pdcpRrc  sentPacketToLowerLayer:vector(packetBytes)  ETV
attr interpolationmode  none
attr source  sentPacketToLowerLayer
vector 913  CAIN.ueD2DTx[22].nic.mac  receivedPacketFromUpperLayer:vector(packetBytes)  ETV
attr interpolationmode  none
attr source  receivedPacketFromUpperLayer
vector 379  CAIN.ueD2DTx[5].nic.mac  CainHopMessageSent:vector  ETV
attr interpolationmode  none
attr title  "# of Sent CAIN hop message, vector"
vector 372  CAIN.ueD2DTx[5].nic.mac  sentPacketToLowerLayer:vector(packetBytes)  ETV
attr interpolationmode  none
attr source  sentPacketToLowerLayer
vector 922  CAIN.ueD2DTx[22].nic.mac  CainMessageSent:vector  ETV
attr interpolationmode  none
attr title  "# of Sent CAIN message, vector"
vector 154  CAIN.eNodeB1.nic.mac  receivedPacketFromLowerLayer:vector(packetBytes)  ETV
attr interpolationmode  none
attr source  receivedPacketFromLowerLayer
vector 1997  CAIN.ueD2DTx[3].tcp  tcpRcvQueueBytes  ETV
vector 1984  CAIN.ueD2DTx[3].tcp  "advertised window"  ETV
vector 1983  CAIN.ueD2DTx[3].tcp  "receive window"  ETV
vector 1986  CAIN.ueD2DTx[3].tcp  "sent ack"  ETV
vector 301  CAIN.ueD2DTx[3].nic.pdcpRrc  receivedPacketFromUpperLayer:vector(packetBytes)  ETV
attr interpolationmode  none
attr source  receivedPacketFromUpperLayer
vector 304  CAIN.ueD2DTx[3].nic.pdcpRrc  sentPacketToLowerLayer:vector(packetBytes)  ETV
attr interpolationmode  none
attr source  sentPacketToLowerLayer
vector 305  CAIN.ueD2DTx[3].nic.mac  receivedPacketFromUpperLayer:vector(packetBytes)  ETV
attr interpolationmode  none
attr source  receivedPacketFromUpperLayer
vector 315  CAIN.ueD2DTx[3].nic.mac  CainHopMessageSent:vector  ETV
attr interpolationmode  none
attr title  "# of Sent CAIN hop message, vector"
vector 308  CAIN.ueD2DTx[3].nic.mac  sentPacketToLowerLayer:vector(packetBytes)  ETV
attr interpolationmode  none
attr source  sentPacketToLowerLayer
vector 108  CAIN.eNodeB.nic.mac  ServedDevs:vector  ETV
attr interpolationmode  none
attr title  "# of devices served on cain forwarding, vector"
vector 2021  CAIN.ueD2DTx[16].tcp  tcpRcvQueueBytes  ETV
vector 2008  CAIN.ueD2DTx[16].tcp  "advertised window"  ETV
vector 2007  CAIN.ueD2DTx[16].tcp  "receive window"  ETV
vector 2010  CAIN.ueD2DTx[16].tcp  "sent ack"  ETV
vector 717  CAIN.ueD2DTx[16].nic.pdcpRrc  receivedPacketFromUpperLayer:vector(packetBytes)  ETV
attr interpolationmode  none
attr source  receivedPacketFromUpperLayer
vector 720  CAIN.ueD2DTx[16].nic.pdcpRrc  sentPacketToLowerLayer:vector(packetBytes)  ETV
attr interpolationmode  none
attr source  sentPacketToLowerLayer
vector 721  CAIN.ueD2DTx[16].nic.mac  receivedPacketFromUpperLayer:vector(packetBytes)  ETV
attr interpolationmode  none
attr source  receivedPacketFromUpperLayer
vector 723  CAIN.ueD2DTx[16].nic.mac  sentPacketToUpperLayer:vector(packetBytes)  ETV
attr interpolationmode  none
attr source  sentPacketToUpperLayer
vector 2045  CAIN.ueD2DTx[23].tcp  tcpRcvQueueBytes  ETV
vector 2032  CAIN.ueD2DTx[23].tcp  "advertised window"  ETV
vector 2031  CAIN.ueD2DTx[23].tcp  "receive window"  ETV
vector 2034  CAIN.ueD2DTx[23].tcp  "sent ack"  ETV
vector 941  CAIN.ueD2DTx[23].nic.pdcpRrc  receivedPacketFromUpperLayer:vector(packetBytes)  ETV
attr interpolationmode  none
attr source  receivedPacketFromUpperLayer
vector 944  CAIN.ueD2DTx[23].nic.pdcpRrc  sentPacketToLowerLayer:vector(packetBytes)  ETV
attr interpolationmode  none
attr source  sentPacketToLowerLayer
vector 945  CAIN.ueD2DTx[23].nic.mac  receivedPacketFromUpperLayer:vector(packetBytes)  ETV
attr interpolationmode  none
attr source  receivedPacketFromUpperLayer
vector 955  CAIN.ueD2DTx[23].nic.mac  CainHopMessageSent:vector  ETV
attr interpolationmode  none
attr title  "# of Sent CAIN hop message, vector"
vector 948  CAIN.ueD2DTx[23].nic.mac  sentPacketToLowerLayer:vector(packetBytes)  ETV
attr interpolationmode  none
attr source  sentPacketToLowerLayer
vector 2069  CAIN.ueD2DTx[18].tcp  tcpRcvQueueBytes  ETV
vector 2056  CAIN.ueD2DTx[18].tcp  "advertised window"  ETV
vector 2055  CAIN.ueD2DTx[18].tcp  "receive window"  ETV
vector 2058  CAIN.ueD2DTx[18].tcp  "sent ack"  ETV
vector 781  CAIN.ueD2DTx[18].nic.pdcpRrc  receivedPacketFromUpperLayer:vector(packetBytes)  ETV
attr interpolationmode  none
attr source  receivedPacketFromUpperLayer
vector 784  CAIN.ueD2DTx[18].nic.pdcpRrc  sentPacketToLowerLayer:vector(packetBytes)  ETV
attr interpolationmode  none
attr source  sentPacketToLowerLayer
vector 785  CAIN.ueD2DTx[18].nic.mac  receivedPacketFromUpperLayer:vector(packetBytes)  ETV
attr interpolationmode  none
attr source  receivedPacketFromUpperLayer
vector 788  CAIN.ueD2DTx[18].nic.mac  sentPacketToLowerLayer:vector(packetBytes)  ETV
attr interpolationmode  none
attr source  sentPacketToLowerLayer
vector 169  CAIN.eNodeB1.nic.mac  racpkt:vector  ETV
attr interpolationmode  none
attr title  "eNB received racpkt message, vector"
vector 170  CAIN.eNodeB1.nic.mac  racDistanceSignal:vector  ETV
attr interpolationmode  none
attr title  "Rac distance to enb, vector"
vector 171  CAIN.eNodeB1.nic.mac  racServedDevsSignal:vector  ETV
attr interpolationmode  none
attr title  "# of devices served on rac arriavall, vector"
vector 156  CAIN.eNodeB1.nic.mac  sentPacketToLowerLayer:vector(packetBytes)  ETV
attr interpolationmode  none
attr source  sentPacketToLowerLayer
vector 786  CAIN.ueD2DTx[18].nic.mac  receivedPacketFromLowerLayer:vector(packetBytes)  ETV
attr interpolationmode  none
attr source  receivedPacketFromLowerLayer
vector 882  CAIN.ueD2DTx[21].nic.mac  receivedPacketFromLowerLayer:vector(packetBytes)  ETV
attr interpolationmode  none
attr source  receivedPacketFromLowerLayer
vector 275  CAIN.ueD2DTx[2].nic.mac  sentPacketToUpperLayer:vector(packetBytes)  ETV
attr interpolationmode  none
attr source  sentPacketToUpperLayer
vector 173  CAIN.eNodeB1.nic.phy  averageCqiUlvect:vector  ETV
attr source  averageCqiUlvect
attr title  "Average Cqi reported in UL, vector"
attr unit  cqi
vector 155  CAIN.eNodeB1.nic.mac  sentPacketToUpperLayer:vector(packetBytes)  ETV
attr interpolationmode  none
attr source  sentPacketToUpperLayer
vector 157  CAIN.eNodeB1.nic.mac  measuredItbs:vector  ETV
attr source  measuredItbs
attr title  "TBS index, vector"
attr unit  ""
vector 890  CAIN.ueD2DTx[21].nic.mac  CainMessageSent:vector  ETV
attr interpolationmode  none
attr title  "# of Sent CAIN message, vector"
vector 754  CAIN.ueD2DTx[17].nic.mac  receivedPacketFromLowerLayer:vector(packetBytes)  ETV
attr interpolationmode  none
attr source  receivedPacketFromLowerLayer
vector 150  CAIN.eNodeB1.nic.pdcpRrc  receivedPacketFromLowerLayer:vector(packetBytes)  ETV
attr interpolationmode  none
attr source  receivedPacketFromLowerLayer
vector 151  CAIN.eNodeB1.nic.pdcpRrc  sentPacketToUpperLayer:vector(packetBytes)  ETV
attr interpolationmode  none
attr source  sentPacketToUpperLayer
vector 218  CAIN.ueD2DTx[0].nic.mac  CainMessageSent:vector  ETV
attr interpolationmode  none
attr title  "# of Sent CAIN message, vector"
vector 755  CAIN.ueD2DTx[17].nic.mac  sentPacketToUpperLayer:vector(packetBytes)  ETV
attr interpolationmode  none
attr source  sentPacketToUpperLayer
vector 243  CAIN.ueD2DTx[1].nic.mac  sentPacketToUpperLayer:vector(packetBytes)  ETV
attr interpolationmode  none
attr source  sentPacketToUpperLayer
vector 787  CAIN.ueD2DTx[18].nic.mac  sentPacketToUpperLayer:vector(packetBytes)  ETV
attr interpolationmode  none
attr source  sentPacketToUpperLayer
1268	61391 24 175 175 0.0000001228 0.0000001228 1 0 0 0 0
1379	61415 28 260 260 0.0000006304 0.0000006304 1 65535 65535 65535 4294836225
1380	61443 27 260 260 0.0000006304 0.0000006304 1 8940 8940 8940 79923600
1381	61470 29 260 260 0.0000006304 0.0000006304 1 0.3725 0.3725 0.3725 0.13875625
1377	61499 24 260 260 0.0000006304 0.0000006304 1 3 3 3 9
1384	61523 24 260 260 0.0000006304 0.0000006304 1 1 1 1 1
1396	61547 24 188 188 0.0000003096 0.0000003096 1 0 0 0 0
1352	61571 28 260 260 0.0000006304 0.0000006304 1 65535 65535 65535 4294836225
1353	61599 27 260 260 0.0000006304 0.0000006304 1 8940 8940 8940 79923600
1354	61626 29 260 260 0.0000006304 0.0000006304 1 0.3725 0.3725 0.3725 0.13875625
1350	61655 24 260 260 0.0000006304 0.0000006304 1 3 3 3 9
1357	61679 24 260 260 0.0000006304 0.0000006304 1 1 1 1 1
1369	61703 24 188 188 0.0000003096 0.0000003096 1 0 0 0 0
1070	61727 28 260 260 0.0000006304 0.0000006304 1 65535 65535 65535 4294836225
1071	61755 27 260 260 0.0000006304 0.0000006304 1 8940 8940 8940 79923600
1072	61782 29 260 260 0.0000006304 0.0000006304 1 0.3725 0.3725 0.3725 0.13875625
1068	61811 48 260 327 0.0000006304 0.0000008564 2 1 3 4 10
1069	61859 31 327 327 0.0000008564 0.0000008564 1 2.26e-07 2.26e-07 2.26e-07 5.1076e-14
1074	61890 2080 4454 20414 0.0570000972 0.2570015836 72 2000 2071 146556 298345836
1077	63970 46 232 246 0.000000552 0.000000596 2 1 2 3 5
1076	64016 46 232 246 0.000000552 0.000000596 2 1 2 3 5
1078	64062 48 327 333 0.0000008564 0.0000009004 2 1 2 3 5
1087	64110 13 156 156 0 0 1 0 0 0 0
1046	64123 89 4454 35972 0.0570000972 0.4570015836 3 65533 65535 196603 12884246539
1050	64212 1944 4454 35972 0.0570000972 0.4570015836 75 0 128 146 16588
1055	66156 77 4454 35972 0.0570000972 0.4570015836 3 0 0 0 0
1056	66233 77 4454 35972 0.0570000972 0.4570015836 3 0 0 0 0
1057	66310 77 4454 35972 0.0570000972 0.4570015836 3 0 0 0 0
1058	66387 77 4454 35972 0.0570000972 0.4570015836 3 0 0 0 0
1059	66464 77 4454 35972 0.0570000972 0.4570015836 3 0 0 0 0
1060	66541 77 4454 35972 0.0570000972 0.4570015836 3 0 0 0 0
1061	66618 77 4454 35972 0.0570000972 0.4570015836 3 0 0 0 0
1062	66695 80 4454 35972 0.0570000972 0.4570015836 3 16 16 48 768
1064	66775 28 188 188 0.0000003096 0.0000003096 1 65535 65535 65535 4294836225
1066	66803 2503 4457 20479 0.0570000972 0.2570015836 72 9.72e-08 1.1052e-06 7.21824e-05 7.844462208e-11
1067	69306 13 156 156 0 0 1 0 0 0 0
1298	69319 27 203 203 0.000000458 0.000000458 1 65535 65535 65535 4294836225
1299	69346 26 203 203 0.000000458 0.000000458 1 8940 8940 8940 79923600
1300	69372 28 203 203 0.000000458 0.000000458 1 0.3725 0.3725 0.3725 0.13875625
1296	69400 23 203 203 0.000000458 0.000000458 1 3 3 3 9
1303	69423 23 203 203 0.000000458 0.000000458 1 1 1 1 1
1311	69446 76 729 32165 0.0070001912 0.4070016776 3 0 0 0 0
1312	69522 76 729 32165 0.0070001912 0.4070016776 3 0 0 0 0
1313	69598 76 729 32165 0.0070001912 0.4070016776 3 0 0 0 0
1315	69674 24 175 175 0.0000001228 0.0000001228 1 0 0 0 0
1271	69698 27 203 203 0.000000458 0.000000458 1 65535 65535 65535 4294836225
1272	69725 26 203 203 0.000000458 0.000000458 1 8940 8940 8940 79923600
1273	69751 28 203 203 0.000000458 0.000000458 1 0.3725 0.3725 0.3725 0.13875625
1269	69779 23 203 203 0.000000458 0.000000458 1 3 3 3 9
1276	69802 23 203 203 0.000000458 0.000000458 1 1 1 1 1
1284	69825 76 729 32165 0.0070001912 0.4070016776 3 0 0 0 0
1285	69901 76 729 32165 0.0070001912 0.4070016776 3 0 0 0 0
1286	69977 76 729 32165 0.0070001912 0.4070016776 3 0 0 0 0
1288	70053 24 175 175 0.0000001228 0.0000001228 1 0 0 0 0
1325	70077 57 203 93057 0.000000458 1.2070004784 2 65535 65535 131070 8589672450
1326	70134 55 203 93057 0.000000458 1.2070004784 2 8940 8940 17880 159847200
1327	70189 58 203 93057 0.000000458 1.2070004784 2 0.3725 23.84 24.2125 568.48435625
1323	70247 123 203 32165 0.000000458 0.4070016776 5 1 3 7 13
1324	70370 138 280 32165 0.0000006744 0.4070016776 4 1.912e-07 0.2000011992 0.400001894 0.080000594561604
1328	70508 2065 674 16316 0.007 0.2070004784 72 2000 2071 146556 298345836
1332	72573 48 298 312 0.0000007624 0.0000008064 2 1 2 3 5
1331	72621 48 298 312 0.0000007624 0.0000008064 2 1 2 3 5
1333	72669 48 280 290 0.0000006744 0.0000007184 2 1 2 3 5
1334	72717 3872 674 32165 0.007 0.4070016776 144 0 128 8292 700064
1335	76589 3872 674 32165 0.007 0.4070016776 144 0 128 8292 700064
1338	80461 76 729 32165 0.0070001912 0.4070016776 3 0 0 0 0
1339	80537 76 729 32165 0.0070001912 0.4070016776 3 0 0 0 0
1340	80613 76 729 32165 0.0070001912 0.4070016776 3 0 0 0 0
1341	80689 76 729 32165 0.0070001912 0.4070016776 3 0 0 0 0
1342	80765 24 175 175 0.0000001228 0.0000001228 1 0 0 0 0
1345	80789 85 729 32165 0.0070001912 0.4070016776 3 2000 2071 6078 12317090
1347	80874 76 729 32165 0.0070001912 0.4070016776 3 0 0 0 0
1348	80950 76 729 32165 0.0070001912 0.4070016776 3 0 0 0 0
1464	81026 76 729 32165 0.0070001912 0.4070016776 3 0 0 0 0
1465	81102 3246 674 16316 0.007 0.2070004784 144 0 64 4146 175016
1008	84348 3872 674 32165 0.007 0.4070016776 144 0 128 8292 700064
1007	88220 3872 674 32165 0.007 0.4070016776 144 0 128 8292 700064
1009	92092 76 729 32165 0.0070001912 0.4070016776 3 0 0 0 0
1010	92168 76 729 32165 0.0070001912 0.4070016776 3 0 0 0 0
1019	92244 88 729 32165 0.0070001912 0.4070016776 3 65533 65535 196603 12884246539
1020	92332 116 175 32165 0.0000001228 0.4070016776 4 65533 65535 262138 17179082764
1023	92448 13 148 148 0 0 1 0 0 0 0
1165	92461 24 174 174 0.0000001228 0.0000001228 1 0 0 0 0
1433	92485 28 261 261 0.0000006304 0.0000006304 1 65535 65535 65535 4294836225
1434	92513 27 261 261 0.0000006304 0.0000006304 1 8940 8940 8940 79923600
1435	92540 29 261 261 0.0000006304 0.0000006304 1 0.3725 0.3725 0.3725 0.13875625
1431	92569 24 261 261 0.0000006304 0.0000006304 1 3 3 3 9
1438	92593 24 261 261 0.0000006304 0.0000006304 1 1 1 1 1
1450	92617 24 189 189 0.0000003096 0.0000003096 1 0 0 0 0
1406	92641 28 261 261 0.0000006304 0.0000006304 1 65535 65535 65535 4294836225
1407	92669 27 261 261 0.0000006304 0.0000006304 1 8940 8940 8940 79923600
1408	92696 29 261 261 0.0000006304 0.0000006304 1 0.3725 0.3725 0.3725 0.13875625
1404	92725 24 261 261 0.0000006304 0.0000006304 1 3 3 3 9
1411	92749 24 261 261 0.0000006304 0.0000006304 1 1 1 1 1
1423	92773 24 189 189 0.0000003096 0.0000003096 1 0 0 0 0
1119	92797 28 261 261 0.0000006304 0.0000006304 1 65535 65535 65535 4294836225
1120	92825 27 261 261 0.0000006304 0.0000006304 1 8940 8940 8940 79923600
1121	92852 29 261 261 0.0000006304 0.0000006304 1 0.3725 0.3725 0.3725 0.13875625
1117	92881 48 261 326 0.0000006304 0.0000008564 2 1 3 4 10
1118	92929 31 326 326 0.0000008564 0.0000008564 1 2.26e-07 2.26e-07 2.26e-07 5.1076e-14
1123	92960 2072 717 16323 0.0070000972 0.2070015836 72 2000 2071 146556 298345836
1126	95032 46 233 247 0.000000552 0.000000596 2 1 2 3 5
1125	95078 46 233 247 0.000000552 0.000000596 2 1 2 3 5
1127	95124 48 326 332 0.0000008564 0.0000009004 2 1 2 3 5
1136	95172 13 157 157 0 0 1 0 0 0 0
1095	95185 88 717 32158 0.0070000972 0.4070015836 3 65533 65535 196603 12884246539
1099	95273 1935 717 32158 0.0070000972 0.4070015836 75 0 128 146 16588
1104	97208 76 717 32158 0.0070000972 0.4070015836 3 0 0 0 0
1105	97284 76 717 32158 0.0070000972 0.4070015836 3 0 0 0 0
1106	97360 76 717 32158 0.0070000972 0.4070015836 3 0 0 0 0
1107	97436 76 717 32158 0.0070000972 0.4070015836 3 0 0 0 0
1108	97512 76 717 32158 0.0070000972 0.4070015836 3 0 0 0 0
1109	97588 76 717 32158 0.0070000972 0.4070015836 3 0 0 0 0
1110	97664 76 717 32158 0.0070000972 0.4070015836 3 0 0 0 0
1111	97740 79 717 32158 0.0070000972 0.4070015836 3 16 16 48 768
1113	97819 28 189 189 0.0000003096 0.0000003096 1 65535 65535 65535 4294836225
1115	97847 2495 720 16388 0.0070000972 0.2070015836 72 9.72e-08 1.1052e-06 7.21824e-05 7.844462208e-11
1116	100342 13 157 157 0 0 1 0 0 0 0
1195	100355 27 202 202 0.000000458 0.000000458 1 65535 65535 65535 4294836225
1196	100382 26 202 202 0.000000458 0.000000458 1 8940 8940 8940 79923600
1197	100408 28 202 202 0.000000458 0.000000458 1 0.3725 0.3725 0.3725 0.13875625
1193	100436 23 202 202 0.000000458 0.000000458 1 3 3 3 9
1200	100459 23 202 202 0.000000458 0.000000458 1 1 1 1 1
1208	100482 77 4475 35979 0.0570001912 0.4570016776 3 0 0 0 0
1209	100559 77 4475 35979 0.0570001912 0.4570016776 3 0 0 0 0
1210	100636 77 4475 35979 0.0570001912 0.4570016776 3 0 0 0 0
1212	100713 24 174 174 0.0000001228 0.0000001228 1 0 0 0 0
1168	100737 27 202 202 0.000000458 0.000000458 1 65535 65535 65535 4294836225
1169	100764 26 202 202 0.000000458 0.000000458 1 8940 8940 8940 79923600
1170	100790 28 202 202 0.000000458 0.000000458 1 0.3725 0.3725 0.3725 0.13875625
1166	100818 23 202 202 0.000000458 0.000000458 1 3 3 3 9
1173	100841 23 202 202 0.000000458 0.000000458 1 1 1 1 1
1181	100864 77 4475 35979 0.0570001912 0.4570016776 3 0 0 0 0
1182	100941 77 4475 35979 0.0570001912 0.4570016776 3 0 0 0 0
1183	101018 77 4475 35979 0.0570001912 0.4570016776 3 0 0 0 0
1185	101095 24 174 174 0.0000001228 0.0000001228 1 0 0 0 0
1222	101119 57 202 96881 0.000000458 1.2570004784 2 65535 65535 131070 8589672450
1223	101176 55 202 96881 0.000000458 1.2570004784 2 8940 8940 17880 159847200
1224	101231 58 202 96881 0.000000458 1.2570004784 2 0.3725 23.84 24.2125 568.48435625
1220	101289 124 202 35979 0.000000458 0.4570016776 5 1 3 7 13
1221	101413 139 281 35979 0.0000006744 0.4570016776 4 1.912e-07 0.2000011992 0.400001894 0.080000594561604
1225	101552 2073 4354 20407 0.057 0.2570004784 72 2000 2071 146556 298345836
1229	103625 48 299 313 0.0000007624 0.0000008064 2 1 2 3 5
1228	103673 48 299 313 0.0000007624 0.0000008064 2 1 2 3 5
1230	103721 48 281 291 0.0000006744 0.0000007184 2 1 2 3 5
1231	103769 3881 4354 35979 0.057 0.4570016776 144 0 128 8292 700064
1232	107650 3881 4354 35979 0.057 0.4570016776 144 0 128 8292 700064
1235	111531 77 4475 35979 0.0570001912 0.4570016776 3 0 0 0 0
1236	111608 77 4475 35979 0.0570001912 0.4570016776 3 0 0 0 0
1237	111685 77 4475 35979 0.0570001912 0.4570016776 3 0 0 0 0
1238	111762 77 4475 35979 0.0570001912 0.4570016776 3 0 0 0 0
1239	111839 24 174 174 0.0000001228 0.0000001228 1 0 0 0 0
1242	111863 86 4475 35979 0.0570001912 0.4570016776 3 2000 2071 6078 12317090
1244	111949 77 4475 35979 0.0570001912 0.4570016776 3 0 0 0 0
1245	112026 77 4475 35979 0.0570001912 0.4570016776 3 0 0 0 0
1460	112103 77 4475 35979 0.0570001912 0.4570016776 3 0 0 0 0
1461	112180 3262 4354 20407 0.057 0.2570004784 144 0 64 4146 175016
1030	115442 3881 4354 35979 0.057 0.4570016776 144 0 128 8292 700064
1029	119323 3881 4354 35979 0.057 0.4570016776 144 0 128 8292 700064
1031	123204 77 4475 35979 0.0570001912 0.4570016776 3 0 0 0 0
1032	123281 77 4475 35979 0.0570001912 0.4570016776 3 0 0 0 0
1041	123358 89 4475 35979 0.0570001912 0.4570016776 3 65533 65535 196603 12884246539
1042	123447 117 174 35979 0.0000001228 0.4570016776 4 65533 65535 262138 17179082764
1045	123564 13 153 153 0 0 1 0 0 0 0
8	123577 8 0 0 0 0 1 0 0 0 0
9	123585 8 0 0 0 0 1 0 0 0 0
24	123593 9 0 0 0 0 1 0 0 0 0
25	123602 9 0 0 0 0 1 0 0 0 0
35	123611 9 0 0 0 0 1 0 0 0 0
36	123620 9 0 0 0 0 1 0 0 0 0
43	123629 254 4467 237309 0.0570001132 3.0900001132 10 52 52 520 27040
44	123883 254 4465 237307 0.0570001132 3.0900001132 10 52 52 520 27040
45	124137 245 4465 237307 0.0570001132 3.0900001132 10 1 10 55 385
56	124382 9 0 0 0 0 1 0 0 0 0
57	124391 9 0 0 0 0 1 0 0 0 0
59	124400 254 4463 237305 0.0570001132 3.0900001132 10 79 79 790 62410
63	124654 254 4463 237305 0.0570001132 3.0900001132 10 72 72 720 51840
64	124908 254 4469 237311 0.0570001132 3.0900001132 10 72 72 720 51840
66	125162 244 4469 237311 0.0570001132 3.0900001132 10 0 0 0 0
67	125406 9 0 0 0 0 1 0 0 0 0
68	125415 497 0 237313 0 3.0900001764 21 0 1 10 10
69	125912 254 4470 237312 0.0570001132 3.0900001132 10 79 79 790 62410
73	126166 254 4470 237312 0.0570001132 3.0900001132 10 72 72 720 51840
78	126420 9 0 0 0 0 1 0 0 0 0
79	126429 9 0 0 0 0 1 0 0 0 0
86	126438 261 1581 237238 0.022 3.09 15 52 52 780 40560
92	126699 261 1574 237234 0.022 3.09 15 45 45 675 30375
93	126960 261 1574 237234 0.022 3.09 15 44 44 660 29040
96	127221 495984 418 343179 0.002 4.418 28316 0 0 0 0
97	623205 295 1569 237230 0.022 3.09 17 16 47 709 31799
98	623500 140136 1214 343110 0.015 4.417 7982 0 0 0 0
99	763636 342 1569 237141 0.022 3.089 20 0 26 248 5992
100	763978 36818 2668 343110 0.037 4.417 1748 1 1748 1528626 1781868374
101	800796 131273 1255 343030 0.016 4.416 6149 1 6149 18908175 77517214775
106	932069 323908 1255 343125 0.016 4.417 15746 299 649 6190665 2507938465
108	1255977 32511 5243 343039 0.066 4.416 1738 2 4 4573 13529
109	1288488 119402 3161 343125 0.043 4.417 6111 12 22 134294 2951890
111	1407890 344730 1214 343125 0.015 4.417 15766 1 15766 124291261 1306425444371
112	1752620 313869 1214 343125 0.015 4.417 15766 60 488 2042960 403153044
113	2066489 292772 1214 343125 0.015 4.417 15766 0 0 0 0
115	2359261 455 1438 237058 0.019 3.087 25 2 15 163 1781
117	2359716 188 4386 237240 0.057 3.09 10 72 72 720 51840
119	2359904 178 4386 237240 0.057 3.09 10 0 0 0 0
120	2360082 10 0 0 0 0 1 0 0 0 0
121	2360092 442 0 237304 0 3.0900000632 21 0 1 10 10
122	2360534 188 4387 237241 0.057 3.09 10 79 79 790 62410
126	2360722 188 4387 237241 0.057 3.09 10 72 72 720 51840
128	2360910 509 164 35974 0 0.4570015836 23 36 1312 2824 1853600
130	2361419 521 164 35974 0 0.4570015836 23 0 8.8e-08 3.088e-07 1.946112e-14
131	2361940 280 0 283 0 0.0000007124 13 0 2 10 14
132	2362220 1031 0 35976 0 0.4570016276 47 0 1 23 23
133	2363251 511 166 35975 0 0.4570015836 23 43 1319 2985 1894263
134	2363762 442 171 32163 0.0000001228 0.4070016776 18 43 1319 2590 1863058
137	2364204 511 166 35975 0 0.4570015836 23 36 1312 2824 1853600
138	2364715 442 171 32163 0.0000001228 0.4070016776 18 36 1312 2464 1827680
141	2365157 1792 4459 20606 0.0570000972 0.2570015836 72 2 2 144 288
145	2366949 389 1622 237316 0.0220001132 3.0900002264 15 52 52 780 40560
146	2367338 380 1622 237316 0.0220001132 3.0900002264 15 1 15 120 1240
149	2367718 165 4329 7243 0.057 0.0900002264 8 44 44 352 15488
150	2367883 98 233413 238121 3.047 3.1 5 45 45 225 10125
151	2367981 98 233413 238121 3.047 3.1 5 44 44 220 9680
152	2368079 165 4329 7243 0.057 0.0900002264 8 45 45 360 16200
153	2368244 165 4368 7246 0.057 0.0900002264 8 45 45 360 16200
154	2368409 107728 4887 343168 0.062 4.418 5830 0 0 0 0
155	2476137 136 232877 238116 3.041 3.1 7 7 47 239 10303
156	2476273 599 7528 238116 0.093 3.1 32 0 0 0 0
157	2476872 134 232877 238116 3.041 3.1 7 2 26 77 1503
169	2477006 169 7528 237576 0.093 3.093 9 1 9 45 285
170	2477175 187 7528 237576 0.093 3.093 9 113 532 2869 1121765
171	2477362 169 7528 237576 0.093 3.093 9 0 0 0 0
173	2477531 173 232690 237884 3.038 3.097 9 3 15 56 518
178	2477704 10 0 0 0 0 1 0 0 0 0
179	2477714 10 0 0 0 0 1 0 0 0 0
181	2477724 264 4479 237314 0.0570002264 3.0900002264 10 79 79 790 62410
185	2477988 264 4479 237314 0.0570002264 3.0900002264 10 72 72 720 51840
186	2478252 422 165 32160 0 0.4070015836 18 36 1312 2464 1827680
188	2478674 439 165 32160 0 0.4070015836 18 0 8.8e-08 3.088e-07 1.946112e-14
189	2479113 280 0 282 0 0.0000007124 13 0 2 10 14
190	2479393 830 0 32162 0 0.4070016276 37 0 1 18 18
191	2480223 424 167 32161 0 0.4070015836 18 43 1319 2590 1863058
192	2480647 566 170 35977 0.0000001228 0.4570016776 23 43 1319 2985 1894263
195	2481213 424 167 32161 0 0.4070015836 18 36 1312 2464 1827680
196	2481637 566 170 35977 0.0000001228 0.4570016776 23 36 1312 2824 1853600
199	2482203 1784 722 16515 0.0070000972 0.2070015836 72 2 2 144 288
205	2483987 56 3935 233990 0.052847558425 3.052847558425 2 44 44 88 3872
208	2484043 56 3935 233990 0.052847558425 3.052847558425 2 45 45 90 4050
209	2484099 56 3938 233993 0.052847558425 3.052847558425 2 45 45 90 4050
212	2484155 5223 3941 343128 0.053 4.418 275 0 0 0 0
218	2489378 5625 233996 343128 3.053 4.418 273 1 273 37401 6819449
219	2495003 36 3941 235392 0.053 3.068 2 1 2 3 5
231	2495039 163 0 8464 0 0.105 10 1 2 19 37
237	2495202 56 4531 234481 0.057084039294 3.057084039294 2 44 44 88 3872
240	2495258 56 4531 234481 0.057084039294 3.057084039294 2 45 45 90 4050
241	2495314 76 4534 234855 0.057084039294 3.062 3 45 47 137 6259
242	2495390 202 2431 235555 0.034 3.069 11 0 0 0 0
243	2495592 19 234851 234851 3.062 3.062 1 0 0 0 0
244	2495611 182 2431 235555 0.034 3.069 10 0 0 0 0
251	2495793 17 4538 4538 0.058 0.058 1 1 1 1 1
263	2495810 163 0 8465 0 0.105 10 1 2 19 37
269	2495973 56 2343 232172 0.032546852513 3.032546852513 2 44 44 88 3872
272	2496029 56 2343 232172 0.032546852513 3.032546852513 2 45 45 90 4050
273	2496085 114 2346 233076 0.032546852513 3.043 5 7 45 141 5517
274	2496199 435 1211 235623 0.015 3.07 24 0 0 0 0
275	2496634 57 232511 233072 3.037 3.043 3 0 0 0 0
276	2496691 445 1211 235623 0.015 3.07 25 0 0 0 0
283	2497136 85 2353 3944 0.033 0.053 5 1 5 15 55
295	2497221 163 0 8466 0 0.105 10 1 2 19 37
301	2497384 56 5110 235132 0.064453871725 3.064453871725 2 44 44 88 3872
304	2497440 56 5110 235132 0.064453871725 3.064453871725 2 45 45 90 4050
305	2497496 56 5113 235135 0.064453871725 3.064453871725 2 45 45 90 4050
308	2497552 15802 5119 342904 0.065 4.415 871 0 0 0 0
315	2513354 17436 5119 342904 0.065 4.415 871 1 871 379756 220638236
327	2530790 10 0 0 0 0 1 1 1 1 1
333	2530800 56 2684 232572 0.037261432968 3.037261432968 2 44 44 88 3872
336	2530856 56 2684 232572 0.037261432968 3.037261432968 2 45 45 90 4050
337	2530912 130 2687 233426 0.037261432968 3.047 6 16 47 188 7132
338	2531042 16975 1250 342886 0.016 4.414 911 0 0 0 0
339	2548017 70 3006 233422 0.042 3.047 4 0 0 0 0
340	2548087 16769 1250 342886 0.016 4.414 899 0 0 0 0
345	2564856 102 1355 2785 0.018 0.038 6 1 6 21 91
359	2564958 163 0 8467 0 0.105 10 1 2 19 37
365	2565121 56 4841 234837 0.061955560849 3.061955560849 2 44 44 88 3872
368	2565177 56 4841 234837 0.061955560849 3.061955560849 2 45 45 90 4050
369	2565233 56 4844 234840 0.061955560849 3.061955560849 2 45 45 90 4050
372	2565289 16307 4860 343074 0.062 4.417 872 0 0 0 0
379	2581596 17943 4860 343074 0.062 4.417 872 1 872 380628 221398620
391	2599539 10 0 0 0 0 1 1 1 1 1
397	2599549 56 1826 231507 0.025271030879 3.025271030879 2 44 44 88 3872
400	2599605 56 1826 231507 0.025271030879 3.025271030879 2 45 45 90 4050
401	2599661 56 1829 231510 0.025271030879 3.025271030879 2 45 45 90 4050
404	2599717 16426 1838 342991 0.026 4.416 879 0 0 0 0
411	2616143 18076 1838 342991 0.026 4.416 879 1 879 386760 226770280
423	2634219 10 0 0 0 0 1 1 1 1 1
429	2634229 56 1731 231414 0.024352218178 3.024352218178 2 44 44 88 3872
432	2634285 56 1731 231414 0.024352218178 3.024352218178 2 45 45 90 4050
433	2634341 166 1734 232341 0.024352218178 3.035 8 0 47 184 8468
434	2634507 33185 1971 343033 0.027 4.416 1776 0 0 0 0
435	2667692 108 2026 232337 0.029 3.035 6 0 0 0 0
436	2667800 33041 1793 343033 0.025 4.416 1768 0 0 0 0
455	2700841 10 0 0 0 0 1 1 1 1 1
461	2700851 56 3449 233490 0.047532676856 3.047532676856 2 44 44 88 3872
464	2700907 56 3449 233490 0.047532676856 3.047532676856 2 45 45 90 4050
465	2700963 56 3452 233493 0.047532676856 3.047532676856 2 45 45 90 4050
468	2701019 16358 3493 343137 0.048 4.418 875 0 0 0 0
475	2717377 18000 3493 343137 0.048 4.418 875 1 875 383250 223690250
487	2735377 10 0 0 0 0 1 1 1 1 1
493	2735387 56 3540 233587 0.048413756283 3.048413756283 2 44 44 88 3872
496	2735443 56 3540 233587 0.048413756283 3.048413756283 2 45 45 90 4050
497	2735499 94 3543 234011 0.048413756283 3.053 4 45 47 184 8468
498	2735593 162706 2013 343113 0.028 4.417 8756 0 0 0 0
499	2898299 36 3953 234007 0.053 3.053 2 0 0 0 0
500	2898335 162416 2013 343113 0.028 4.417 8739 0 0 0 0
505	3060751 222 2144 3833 0.03 0.051 13 1 13 91 819
519	3060973 10 0 0 0 0 1 1 1 1 1
525	3060983 56 2446 232315 0.034129833705 3.034129833705 2 44 44 88 3872
528	3061039 56 2446 232315 0.034129833705 3.034129833705 2 45 45 90 4050
529	3061095 56 2449 232318 0.034129833705 3.034129833705 2 45 45 90 4050
530	3061151 32457 1179 342874 0.014 4.414 1736 0 0 0 0
532	3093608 48358 1179 342912 0.014 4.415 2613 0 0 0 0
538	3141966 17547 2474 342912 0.035 4.415 877 1 877 385003 225226755
551	3159513 10 0 0 0 0 1 1 1 1 1
557	3159523 56 1565 231169 0.021843716542 3.021843716542 2 44 44 88 3872
560	3159579 56 1565 231169 0.021843716542 3.021843716542 2 45 45 90 4050
561	3159635 94 1568 231529 0.021843716542 3.026 4 45 47 184 8468
562	3159729 218 1726 232222 0.024 3.033 12 0 0 0 0
563	3159947 36 1844 231525 0.026 3.026 2 0 0 0 0
564	3159983 146 1597 232222 0.022 3.033 8 0 0 0 0
583	3160129 10 0 0 0 0 1 1 1 1 1
589	3160139 56 1092 230496 0.013528948517 3.013528948517 2 44 44 88 3872
592	3160195 56 1092 230496 0.013528948517 3.013528948517 2 45 45 90 4050
593	3160251 56 1095 230499 0.013528948517 3.013528948517 2 45 45 90 4050
596	3160307 5492 1110 342851 0.014 4.414 290 0 0 0 0
603	3165799 5964 1110 342851 0.014 4.414 290 1 290 42195 8171765
615	3171763 163 0 8468 0 0.105 10 1 2 19 37
621	3171926 55 997 230398 0.012270864309 3.012270864309 2 44 44 88 3872
624	3171981 55 997 230398 0.012270864309 3.012270864309 2 45 45 90 4050
625	3172036 56 1000 230401 0.012270864309 3.012270864309 2 45 45 90 4050
628	3172092 16477 1065 343143 0.013 4.418 882 0 0 0 0
635	3188569 18133 1065 343143 0.013 4.418 882 1 882 389403 229098765
647	3206702 10 0 0 0 0 1 1 1 1 1
653	3206712 56 2454 232322 0.034439526021 3.034439526021 2 44 44 88 3872
656	3206768 56 2454 232322 0.034439526021 3.034439526021 2 45 45 90 4050
657	3206824 56 2457 232325 0.034439526021 3.034439526021 2 45 45 90 4050
660	3206880 15901 2479 342917 0.035 4.415 877 0 0 0 0
667	3222781 17547 2479 342917 0.035 4.415 877 1 877 385003 225226755
679	3240328 10 0 0 0 0 1 1 1 1 1
685	3240338 56 3838 233909 0.051566809383 3.051566809383 2 44 44 88 3872
688	3240394 56 3838 233909 0.051566809383 3.051566809383 2 45 45 90 4050
689	3240450 94 3841 234272 0.051566809383 3.056 4 45 47 184 8468
690	3240544 553 3371 235039 0.046 3.063 32 0 0 0 0
691	3241097 36 4219 234268 0.056 3.056 2 0 0 0 0
692	3241133 414 3371 235039 0.046 3.063 24 0 0 0 0
697	3241547 67 3533 4000 0.048 0.053 4 1 4 10 30
711	3241614 10 0 0 0 0 1 1 1 1 1
717	3241624 56 6004 236069 0.075361895796 3.075361895796 2 44 44 88 3872
720	3241680 56 6004 236069 0.075361895796 3.075361895796 2 45 45 90 4050
721	3241736 164 6007 236901 0.075361895796 3.086 8 0 47 184 8468
722	3241900 65484 1217 343120 0.015 4.417 3531 0 0 0 0
723	3307384 106 6302 236897 0.08 3.086 6 0 0 0 0
724	3307490 64968 1217 343120 0.015 4.417 3501 0 0 0 0
728	3372458 153 2780 6195 0.038 0.078 9 1 9 45 285
729	3372611 225 1292 6115 0.017 0.077 13 1 13 91 819
743	3372836 10 0 0 0 0 1 1 1 1 1
749	3372846 54 3927 233983 0.05273845314 3.05273845314 2 44 44 88 3872
752	3372900 54 3927 233983 0.05273845314 3.05273845314 2 45 45 90 4050
753	3372954 112 3930 235017 0.05273845314 3.063 5 0 47 137 6259
754	3373066 10581 233021 343104 3.042 4.417 557 0 0 0 0
755	3383647 57 234416 235013 3.057 3.063 3 0 0 0 0
756	3383704 10523 3966 343104 0.053 4.417 554 0 0 0 0
763	3394227 17 3966 3966 0.053 0.053 1 1 1 1 1
775	3394244 163 0 8469 0 0.105 10 1 2 19 37
781	3394407 56 7334 237409 0.091364573385 3.091364573385 2 44 44 88 3872
784	3394463 56 7334 237409 0.091364573385 3.091364573385 2 45 45 90 4050
785	3394519 76 7337 237780 0.091364573385 3.096 3 45 47 137 6259
786	3394595 5432 7594 343024 0.094 4.416 286 0 0 0 0
787	3400027 19 237776 237776 3.096 3.096 1 0 0 0 0
788	3400046 5394 7359 343024 0.092 4.416 284 0 0 0 0
807	3405440 163 0 8470 0 0.105 10 1 2 19 37
813	3405603 56 1084 230489 0.013169782835 3.013169782835 2 44 44 88 3872
816	3405659 56 1084 230489 0.013169782835 3.013169782835 2 45 45 90 4050
817	3405715 94 1087 230859 0.013169782835 3.018 4 45 47 184 8468
818	3405809 32370 1253 343117 0.016 4.417 1758 0 0 0 0
819	3438179 36 1340 230855 0.018 3.018 2 0 0 0 0
820	3438215 32298 1118 343117 0.014 4.417 1754 0 0 0 0
839	3470513 10 0 0 0 0 1 1 1 1 1
845	3470523 56 1930 231648 0.026259455872 3.026259455872 2 44 44 88 3872
848	3470579 56 1930 231648 0.026259455872 3.026259455872 2 45 45 90 4050
849	3470635 56 1933 231651 0.026259455872 3.026259455872 2 45 45 90 4050
852	3470691 16426 1957 343090 0.027 4.417 879 0 0 0 0
859	3487117 18076 1957 343090 0.027 4.417 879 1 879 386760 226770280
871	3505193 10 0 0 0 0 1 1 1 1 1
877	3505203 56 2913 232872 0.040466304503 3.040466304503 2 44 44 88 3872
880	3505259 56 2913 232872 0.040466304503 3.040466304503 2 45 45 90 4050
881	3505315 56 2916 232875 0.040466304503 3.040466304503 2 45 45 90 4050
882	3505371 5091 230660 342932 3.015 4.415 276 0 0 0 0
884	3510462 10403 2941 343007 0.041 4.416 556 0 0 0 0
890	3520865 5646 232904 343007 3.041 4.416 274 1 274 37675 6894525
891	3526511 106 2941 235255 0.041 3.066 6 1 6 21 91
903	3526617 163 0 8471 0 0.105 10 1 2 19 37
909	3526780 56 4849 234844 0.061974657003 3.061974657003 2 44 44 88 3872
912	3526836 56 4849 234844 0.061974657003 3.061974657003 2 45 45 90 4050
913	3526892 56 4852 234847 0.061974657003 3.061974657003 2 45 45 90 4050
914	3526948 97800 1966 343101 0.027 4.417 5231 0 0 0 0
916	3624748 114107 1966 343101 0.027 4.417 6103 0 0 0 0
922	3738855 17943 4879 343093 0.062 4.417 872 1 872 380628 221398620
935	3756798 10 0 0 0 0 1 1 1 1 1
941	3756808 56 6921 237015 0.086746254247 3.086746254247 2 44 44 88 3872
944	3756864 56 6921 237015 0.086746254247 3.086746254247 2 45 45 90 4050
945	3756920 56 6924 237018 0.086746254247 3.086746254247 2 45 45 90 4050
948	3756976 16222 6985 343095 0.087 4.417 867 0 0 0 0
955	3773198 17848 6985 343095 0.087 4.417 867 1 867 376278 217614110
967	3791046 10 0 0 0 0 1 1 1 1 1
973	3791056 56 2971 232944 0.041518176082 3.041518176082 2 44 44 88 3872
976	3791112 56 2971 232944 0.041518176082 3.041518176082 2 45 45 90 4050
977	3791168 94 2974 233373 0.041518176082 3.046 4 45 47 184 8468
978	3791262 235 3257 233883 0.044 3.051 13 0 0 0 0
979	3791497 36 3353 233369 0.046 3.046 2 0 0 0 0
980	3791533 163 3031 233883 0.042 3.051 9 0 0 0 0
999	3791696 10 0 0 0 0 1 1 1 1 1
1479	3791706 61 994 230395 0.012270864309 3.012270864309 2 7504 7504 15008 112620032
1480	3791767 61 994 230395 0.012270864309 3.012270864309 2 7504 7504 15008 112620032
1482	3791828 55 994 230395 0.012270864309 3.012270864309 2 0 0 0 0
1493	3791883 55 994 230395 0.012270864309 3.012270864309 2 0 0 0 0
1503	3791938 62 1081 230486 0.013169782835 3.013169782835 2 7504 7504 15008 112620032
1504	3792000 62 1081 230486 0.013169782835 3.013169782835 2 7504 7504 15008 112620032
1506	3792062 56 1081 230486 0.013169782835 3.013169782835 2 0 0 0 0
1517	3792118 56 1081 230486 0.013169782835 3.013169782835 2 0 0 0 0
1527	3792174 62 1089 230493 0.013528948517 3.013528948517 2 7504 7504 15008 112620032
1528	3792236 62 1089 230493 0.013528948517 3.013528948517 2 7504 7504 15008 112620032
1530	3792298 56 1089 230493 0.013528948517 3.013528948517 2 0 0 0 0
1541	3792354 56 1089 230493 0.013528948517 3.013528948517 2 0 0 0 0
1551	3792410 62 1562 231166 0.021843716542 3.021843716542 2 7504 7504 15008 112620032
1552	3792472 62 1562 231166 0.021843716542 3.021843716542 2 7504 7504 15008 112620032
1554	3792534 56 1562 231166 0.021843716542 3.021843716542 2 0 0 0 0
1565	3792590 56 1562 231166 0.021843716542 3.021843716542 2 0 0 0 0
1575	3792646 62 1728 231411 0.024352218178 3.024352218178 2 7504 7504 15008 112620032
1576	3792708 62 1728 231411 0.024352218178 3.024352218178 2 7504 7504 15008 112620032
1578	3792770 56 1728 231411 0.024352218178 3.024352218178 2 0 0 0 0
1589	3792826 56 1728 231411 0.024352218178 3.024352218178 2 0 0 0 0
1599	3792882 62 1823 231504 0.025271030879 3.025271030879 2 7504 7504 15008 112620032
1600	3792944 62 1823 231504 0.025271030879 3.025271030879 2 7504 7504 15008 112620032
1602	3793006 56 1823 231504 0.025271030879 3.025271030879 2 0 0 0 0
1613	3793062 56 1823 231504 0.025271030879 3.025271030879 2 0 0 0 0
1623	3793118 62 1927 231645 0.026259455872 3.026259455872 2 7504 7504 15008 112620032
1624	3793180 62 1927 231645 0.026259455872 3.026259455872 2 7504 7504 15008 112620032
1626	3793242 56 1927 231645 0.026259455872 3.026259455872 2 0 0 0 0
1637	3793298 56 1927 231645 0.026259455872 3.026259455872 2 0 0 0 0
1647	3793354 62 2340 232169 0.032546852513 3.032546852513 2 7504 7504 15008 112620032
1648	3793416 62 2340 232169 0.032546852513 3.032546852513 2 7504 7504 15008 112620032
1650	3793478 56 2340 232169 0.032546852513 3.032546852513 2 0 0 0 0
1661	3793534 56 2340 232169 0.032546852513 3.032546852513 2 0 0 0 0
1671	3793590 62 2443 232312 0.034129833705 3.034129833705 2 7504 7504 15008 112620032
1672	3793652 62 2443 232312 0.034129833705 3.034129833705 2 7504 7504 15008 112620032
1674	3793714 56 2443 232312 0.034129833705 3.034129833705 2 0 0 0 0
1685	3793770 56 2443 232312 0.034129833705 3.034129833705 2 0 0 0 0
1695	3793826 62 2451 232319 0.034439526021 3.034439526021 2 7504 7504 15008 112620032
1696	3793888 62 2451 232319 0.034439526021 3.034439526021 2 7504 7504 15008 112620032
1698	3793950 56 2451 232319 0.034439526021 3.034439526021 2 0 0 0 0
1709	3794006 56 2451 232319 0.034439526021 3.034439526021 2 0 0 0 0
1719	3794062 62 2681 232569 0.037261432968 3.037261432968 2 7504 7504 15008 112620032
1720	3794124 62 2681 232569 0.037261432968 3.037261432968 2 7504 7504 15008 112620032
1722	3794186 56 2681 232569 0.037261432968 3.037261432968 2 0 0 0 0
1733	3794242 56 2681 232569 0.037261432968 3.037261432968 2 0 0 0 0
1743	3794298 62 2910 232869 0.040466304503 3.040466304503 2 7504 7504 15008 112620032
1744	3794360 62 2910 232869 0.040466304503 3.040466304503 2 7504 7504 15008 112620032
1746	3794422 56 2910 232869 0.040466304503 3.040466304503 2 0 0 0 0
1757	3794478 56 2910 232869 0.040466304503 3.040466304503 2 0 0 0 0
1767	3794534 62 2968 232941 0.041518176082 3.041518176082 2 7504 7504 15008 112620032
1768	3794596 62 2968 232941 0.041518176082 3.041518176082 2 7504 7504 15008 112620032
1770	3794658 56 2968 232941 0.041518176082 3.041518176082 2 0 0 0 0
1781	3794714 56 2968 232941 0.041518176082 3.041518176082 2 0 0 0 0
1791	3794770 62 3446 233487 0.047532676856 3.047532676856 2 7504 7504 15008 112620032
1792	3794832 62 3446 233487 0.047532676856 3.047532676856 2 7504 7504 15008 112620032
1794	3794894 56 3446 233487 0.047532676856 3.047532676856 2 0 0 0 0
1805	3794950 56 3446 233487 0.047532676856 3.047532676856 2 0 0 0 0
1815	3795006 62 3537 233584 0.048413756283 3.048413756283 2 7504 7504 15008 112620032
1816	3795068 62 3537 233584 0.048413756283 3.048413756283 2 7504 7504 15008 112620032
1818	3795130 56 3537 233584 0.048413756283 3.048413756283 2 0 0 0 0
1829	3795186 56 3537 233584 0.048413756283 3.048413756283 2 0 0 0 0
1839	3795242 62 3835 233906 0.051566809383 3.051566809383 2 7504 7504 15008 112620032
1840	3795304 62 3835 233906 0.051566809383 3.051566809383 2 7504 7504 15008 112620032
1842	3795366 56 3835 233906 0.051566809383 3.051566809383 2 0 0 0 0
1853	3795422 56 3835 233906 0.051566809383 3.051566809383 2 0 0 0 0
1863	3795478 60 3924 233980 0.05273845314 3.05273845314 2 7504 7504 15008 112620032
1864	3795538 60 3924 233980 0.05273845314 3.05273845314 2 7504 7504 15008 112620032
1866	3795598 54 3924 233980 0.05273845314 3.05273845314 2 0 0 0 0
1877	3795652 54 3924 233980 0.05273845314 3.05273845314 2 0 0 0 0
1887	3795706 62 3932 233987 0.052847558425 3.052847558425 2 7504 7504 15008 112620032
1888	3795768 62 3932 233987 0.052847558425 3.052847558425 2 7504 7504 15008 112620032
1890	3795830 56 3932 233987 0.052847558425 3.052847558425 2 0 0 0 0
1901	3795886 56 3932 233987 0.052847558425 3.052847558425 2 0 0 0 0
1911	3795942 62 4528 234478 0.057084039294 3.057084039294 2 7504 7504 15008 112620032
1912	3796004 62 4528 234478 0.057084039294 3.057084039294 2 7504 7504 15008 112620032
1914	3796066 56 4528 234478 0.057084039294 3.057084039294 2 0 0 0 0
1925	3796122 56 4528 234478 0.057084039294 3.057084039294 2 0 0 0 0
1935	3796178 62 4838 234834 0.061955560849 3.061955560849 2 7504 7504 15008 112620032
1936	3796240 62 4838 234834 0.061955560849 3.061955560849 2 7504 7504 15008 112620032
1938	3796302 56 4838 234834 0.061955560849 3.061955560849 2 0 0 0 0
1949	3796358 56 4838 234834 0.061955560849 3.061955560849 2 0 0 0 0
1959	3796414 62 4846 234841 0.061974657003 3.061974657003 2 7504 7504 15008 112620032
1960	3796476 62 4846 234841 0.061974657003 3.061974657003 2 7504 7504 15008 112620032
1962	3796538 56 4846 234841 0.061974657003 3.061974657003 2 0 0 0 0
1973	3796594 56 4846 234841 0.061974657003 3.061974657003 2 0 0 0 0
1983	3796650 62 5107 235129 0.064453871725 3.064453871725 2 7504 7504 15008 112620032
1984	3796712 62 5107 235129 0.064453871725 3.064453871725 2 7504 7504 15008 112620032
1986	3796774 56 5107 235129 0.064453871725 3.064453871725 2 0 0 0 0
1997	3796830 56 5107 235129 0.064453871725 3.064453871725 2 0 0 0 0
2007	3796886 62 6001 236066 0.075361895796 3.075361895796 2 7504 7504 15008 112620032
2008	3796948 62 6001 236066 0.075361895796 3.075361895796 2 7504 7504 15008 112620032
2010	3797010 56 6001 236066 0.075361895796 3.075361895796 2 0 0 0 0
2021	3797066 56 6001 236066 0.075361895796 3.075361895796 2 0 0 0 0
2031	3797122 62 6918 237012 0.086746254247 3.086746254247 2 7504 7504 15008 112620032
2032	3797184 62 6918 237012 0.086746254247 3.086746254247 2 7504 7504 15008 112620032
2034	3797246 56 6918 237012 0.086746254247 3.086746254247 2 0 0 0 0
2045	3797302 56 6918 237012 0.086746254247 3.086746254247 2 0 0 0 0
2055	3797358 62 7331 237406 0.091364573385 3.091364573385 2 7504 7504 15008 112620032
2056	3797420 62 7331 237406 0.091364573385 3.091364573385 2 7504 7504 15008 112620032
2058	3797482 56 7331 237406 0.091364573385 3.091364573385 2 0 0 0 0
2069	3797538 56 7331 237406 0.091364573385 3.091364573385 2 0 0 0 0
