version 2
run CAIN-31-20200508-17:07:36-16262
attr configname CAIN
attr datetime 20200508-17:07:36
attr dist 200
attr experiment CAIN
attr inifile omnetpp.ini
attr iterationvars "$numUe=25, $pwr=-50, $dist=200, $mob=\"./movements/RWP-0.0.movements\""
attr iterationvars2 "$numUe=25, $pwr=-50, $dist=200, $mob=\"./movements/RWP-0.0.movements\", $repetition=1"
attr measurement "$numUe=25, $pwr=-50, $dist=200, $mob=\"./movements/RWP-0.0.movements\""
attr mob "\"./movements/RWP-0.0.movements\""
attr network lte.simulations.networks.CAIN
attr numUe 25
attr processid 16262
attr pwr -50
attr repetition 1
attr replication #1
attr resultdir results
attr runnumber 31
attr seedset 1
param **.**.amcMode "\"AUTO\""
param **.amcMode "\"D2D\""
param **.cainNetwork true
param **.channelControl.alpha 1.0
param **.channelControl.carrierFrequency 2100e+6Hz
param **.channelControl.pMax 10W
param **.d2dCqi 7
param **.deployer.numRbDl 50
param **.deployer.numRbUl 50
param **.distThresh ${dist=200}
param **.fbDelay 1
param **.feedbackComputation "xmldoc(\"config_channel.xml\")"
param **.mobility.constraintAreaMaxX 1000m
param **.mobility.constraintAreaMaxY 1000m
param **.mobility.constraintAreaMaxZ 0m
param **.mobility.constraintAreaMinX 0m
param **.mobility.constraintAreaMinY 0m
param **.mobility.constraintAreaMinZ 0m
param **.nic.phy.channelModel "xmldoc(\"config_channel.xml\")"
param **.numBands 50
param **.pwrThresh "${pwr= -50}"
param **.qtdThresh 3
param **.rbAllocationType "\"localized\""
param **.routingRecorder.enabled false
param **.tcpApp[*].tClose -1s
param **.ueD2DTx[*].mobility.changeAngleBy "normal(0deg, 30deg)"
param **.ueD2DTx[*].mobility.changeInterval "normal(5s, 0.1s)"
param **.ueD2DTx[*].mobility.nodeId -1
param **.ueD2DTx[*].mobility.speed "normal(2mps, 0.01mps)"
param **.ueD2DTx[*].mobility.traceFile "${mob=\"./movements/RWP-0.0.movements\",\"./movements/RWP-0.5.movements\",\"./movements/RPGM-0.0.movements\",\"./movements/RPGM-0.5.movements\",\"./movements/RWPRPGM-0.0.movements\",\"./movements/RWPRPGM-0.5.movements\"}"
param **.ueD2DTx[*].mobilityType "\"BonnMotionMobility\""
param **.usePreconfiguredTxParams false
param *.eNodeB*.numX2Apps 1
param *.eNodeB*.x2App[*].server.localPort "5000 + ancestorIndex(1)"
param *.eNodeB.d2dCapable false
param *.eNodeB.mobility.initFromDisplayString false
param *.eNodeB.mobility.initialX 300m
param *.eNodeB.mobility.initialY 300m
param *.eNodeB.nic.phy.enableD2DCqiReporting true
param *.eNodeB.txPower 19952.62315mw
param *.eNodeB.x2App[0].client.connectAddress "\"eNodeB1%x2ppp0\""
param *.eNodeB1.d2dCapable true
param *.eNodeB1.mobility.initFromDisplayString false
param *.eNodeB1.mobility.initialX 700m
param *.eNodeB1.mobility.initialY 300m
param *.eNodeB1.nic.phy.enableD2DCqiReporting true
param *.eNodeB1.txPower 19952.62315mw
param *.eNodeB1.x2App[0].client.connectAddress "\"eNodeB%x2ppp0\""
param *.extCell[*].bandAllocationType "\"FULL_ALLOC\""
param *.extCell[*].bandUtilization 0.5
param *.extCell[*].txDirection "\"ANISOTROPIC\""
param *.extCell[*].txPower 20
param *.extCell[0].position_x 100m
param *.extCell[0].position_y 600m
param *.extCell[0].txAngle 315
param *.extCell[1].position_x 600m
param *.extCell[1].position_y 600m
param *.extCell[1].txAngle 225
param *.numExtCells 2
param *.numUeCell 0
param *.numUeD2DRx 1
param *.numUeD2DTx 1
param *.ue*.macCellId 1
param *.ue*.masterId 1
param *.ue*.mobility.initFromDisplayString false
param *.ue*[0].macCellId 1
param *.ue*[0].masterId 1
param *.ue*[0].mobility.initFromDisplayString false
param *.ueD2D*.numTcpApps 1
param *.ueD2D*[*].d2dCapable true
param *.ueD2D*[0].d2dCapable false
param *.ueD2D*[0].numTcpApps 1
param *.ueD2DRx[0].mobility.initialX 310m
param *.ueD2DRx[0].mobility.initialY 350m
param *.ueD2DRx[0].tcpApp[*].localPort 1000
param *.ueD2DRx[0].tcpApp[*].typename "\"TCPSinkApp\""
param *.ueD2DTx*.nic.d2dPeerAddresses "\"ueD2DTx[1]\""
param *.ueD2DTx*.tcpApp[*].connectAddress "\"ueD2DTx[0]\""
param *.ueD2DTx*.tcpApp[*].localAddress "\"ueD2DTx\""
param *.ueD2DTx*.tcpApp[*].localPort 1000
param *.ueD2DTx*.tcpApp[*].sendBytes 1GiB
param *.ueD2DTx*.tcpApp[*].typename "\"TCPSessionApp\""
param *.ueD2DTx*.tcpApp[0].active true
param *.ueD2DTx*.tcpApp[0].connectPort 1000
param *.ueD2DTx*.tcpApp[0].tOpen uniform(0.010s,0.1s)
param *.ueD2DTx*.tcpApp[0].tSend uniform(0.15s,0.5s)
param *.ueD2DTx[0].mobility.initialX 290m
param *.ueD2DTx[0].mobility.initialY 350m
param *.ueD2DTx[0].tcpApp[*].localPort 1000
param *.ueD2DTx[0].tcpApp[*].sendBytes 1GiB
param *.ueD2DTx[0].tcpApp[*].typename "\"TCPSessionApp\""
param *.ueD2DTx[0].tcpApp[0].active true
param *.ueD2DTx[0].tcpApp[0].connectAddress "\"ueD2DRx[0]\""
param *.ueD2DTx[0].tcpApp[0].connectPort 1000
param *.ueD2DTx[0].tcpApp[0].localAddress "\"ueD2DTx[0]\""
param *.ueD2DTx[0].tcpApp[0].tOpen uniform(0.010s,0.1s)
param *.ueD2DTx[0].tcpApp[0].tSend uniform(0.15s,0.5s)
param *.ueD2DTx[1].mobility.initialX 690m
param *.ueD2DTx[1].mobility.initialY 250m

vector 8  CAIN.server.ppp[0].queue  queueLength:vector  ETV
attr interpolationmode  sample-hold
attr title  "queue length, vector"
vector 9  CAIN.server.ppp[0].ppp  txState:vector  ETV
attr interpolationmode  sample-hold
attr title  "tx state, vector"
vector 24  CAIN.router.ppp[0].queue  queueLength:vector  ETV
attr interpolationmode  sample-hold
attr title  "queue length, vector"
vector 25  CAIN.router.ppp[0].ppp  txState:vector  ETV
attr interpolationmode  sample-hold
attr title  "tx state, vector"
vector 35  CAIN.router.ppp[1].queue  queueLength:vector  ETV
attr interpolationmode  sample-hold
attr title  "queue length, vector"
vector 36  CAIN.router.ppp[1].ppp  txState:vector  ETV
attr interpolationmode  sample-hold
attr title  "tx state, vector"
vector 56  CAIN.pgw.ppp[0].queue  queueLength:vector  ETV
attr interpolationmode  sample-hold
attr title  "queue length, vector"
vector 57  CAIN.pgw.ppp[0].ppp  txState:vector  ETV
attr interpolationmode  sample-hold
attr title  "tx state, vector"
vector 67  CAIN.pgw.ppp[1].queue  queueLength:vector  ETV
attr interpolationmode  sample-hold
attr title  "queue length, vector"
vector 68  CAIN.pgw.ppp[1].ppp  txState:vector  ETV
attr interpolationmode  sample-hold
attr title  "tx state, vector"
vector 78  CAIN.pgw.pppInterface.queue  queueLength:vector  ETV
attr interpolationmode  sample-hold
attr title  "queue length, vector"
vector 79  CAIN.pgw.pppInterface.ppp  txState:vector  ETV
attr interpolationmode  sample-hold
attr title  "tx state, vector"
vector 120  CAIN.eNodeB.pppIf.queue  queueLength:vector  ETV
attr interpolationmode  sample-hold
attr title  "queue length, vector"
vector 121  CAIN.eNodeB.pppIf.ppp  txState:vector  ETV
attr interpolationmode  sample-hold
attr title  "tx state, vector"
vector 131  CAIN.eNodeB.x2ppp[0].queue  queueLength:vector  ETV
attr interpolationmode  sample-hold
attr title  "queue length, vector"
vector 132  CAIN.eNodeB.x2ppp[0].ppp  txState:vector  ETV
attr interpolationmode  sample-hold
attr title  "tx state, vector"
vector 178  CAIN.eNodeB1.pppIf.queue  queueLength:vector  ETV
attr interpolationmode  sample-hold
attr title  "queue length, vector"
vector 179  CAIN.eNodeB1.pppIf.ppp  txState:vector  ETV
attr interpolationmode  sample-hold
attr title  "tx state, vector"
vector 189  CAIN.eNodeB1.x2ppp[0].queue  queueLength:vector  ETV
attr interpolationmode  sample-hold
attr title  "queue length, vector"
vector 190  CAIN.eNodeB1.x2ppp[0].ppp  txState:vector  ETV
attr interpolationmode  sample-hold
attr title  "tx state, vector"
vector 231  CAIN.ueD2DTx[0].nic.phy  servingCell:vector  ETV
attr source  servingCell
attr title  "ID of the serving eNodeB for the UE, vector"
attr unit  ""
vector 263  CAIN.ueD2DTx[1].nic.phy  servingCell:vector  ETV
attr source  servingCell
attr title  "ID of the serving eNodeB for the UE, vector"
attr unit  ""
vector 295  CAIN.ueD2DTx[2].nic.phy  servingCell:vector  ETV
attr source  servingCell
attr title  "ID of the serving eNodeB for the UE, vector"
attr unit  ""
vector 327  CAIN.ueD2DTx[3].nic.phy  servingCell:vector  ETV
attr source  servingCell
attr title  "ID of the serving eNodeB for the UE, vector"
attr unit  ""
vector 359  CAIN.ueD2DTx[4].nic.phy  servingCell:vector  ETV
attr source  servingCell
attr title  "ID of the serving eNodeB for the UE, vector"
attr unit  ""
vector 391  CAIN.ueD2DTx[5].nic.phy  servingCell:vector  ETV
attr source  servingCell
attr title  "ID of the serving eNodeB for the UE, vector"
attr unit  ""
vector 423  CAIN.ueD2DTx[6].nic.phy  servingCell:vector  ETV
attr source  servingCell
attr title  "ID of the serving eNodeB for the UE, vector"
attr unit  ""
vector 455  CAIN.ueD2DTx[7].nic.phy  servingCell:vector  ETV
attr source  servingCell
attr title  "ID of the serving eNodeB for the UE, vector"
attr unit  ""
vector 487  CAIN.ueD2DTx[8].nic.phy  servingCell:vector  ETV
attr source  servingCell
attr title  "ID of the serving eNodeB for the UE, vector"
attr unit  ""
vector 519  CAIN.ueD2DTx[9].nic.phy  servingCell:vector  ETV
attr source  servingCell
attr title  "ID of the serving eNodeB for the UE, vector"
attr unit  ""
vector 551  CAIN.ueD2DTx[10].nic.phy  servingCell:vector  ETV
attr source  servingCell
attr title  "ID of the serving eNodeB for the UE, vector"
attr unit  ""
vector 583  CAIN.ueD2DTx[11].nic.phy  servingCell:vector  ETV
attr source  servingCell
attr title  "ID of the serving eNodeB for the UE, vector"
attr unit  ""
vector 615  CAIN.ueD2DTx[12].nic.phy  servingCell:vector  ETV
attr source  servingCell
attr title  "ID of the serving eNodeB for the UE, vector"
attr unit  ""
vector 647  CAIN.ueD2DTx[13].nic.phy  servingCell:vector  ETV
attr source  servingCell
attr title  "ID of the serving eNodeB for the UE, vector"
attr unit  ""
vector 679  CAIN.ueD2DTx[14].nic.phy  servingCell:vector  ETV
attr source  servingCell
attr title  "ID of the serving eNodeB for the UE, vector"
attr unit  ""
vector 711  CAIN.ueD2DTx[15].nic.phy  servingCell:vector  ETV
attr source  servingCell
attr title  "ID of the serving eNodeB for the UE, vector"
attr unit  ""
vector 743  CAIN.ueD2DTx[16].nic.phy  servingCell:vector  ETV
attr source  servingCell
attr title  "ID of the serving eNodeB for the UE, vector"
attr unit  ""
vector 775  CAIN.ueD2DTx[17].nic.phy  servingCell:vector  ETV
attr source  servingCell
attr title  "ID of the serving eNodeB for the UE, vector"
attr unit  ""
vector 807  CAIN.ueD2DTx[18].nic.phy  servingCell:vector  ETV
attr source  servingCell
attr title  "ID of the serving eNodeB for the UE, vector"
attr unit  ""
vector 839  CAIN.ueD2DTx[19].nic.phy  servingCell:vector  ETV
attr source  servingCell
attr title  "ID of the serving eNodeB for the UE, vector"
attr unit  ""
vector 871  CAIN.ueD2DTx[20].nic.phy  servingCell:vector  ETV
attr source  servingCell
attr title  "ID of the serving eNodeB for the UE, vector"
attr unit  ""
vector 903  CAIN.ueD2DTx[21].nic.phy  servingCell:vector  ETV
attr source  servingCell
attr title  "ID of the serving eNodeB for the UE, vector"
attr unit  ""
vector 935  CAIN.ueD2DTx[22].nic.phy  servingCell:vector  ETV
attr source  servingCell
attr title  "ID of the serving eNodeB for the UE, vector"
attr unit  ""
vector 967  CAIN.ueD2DTx[23].nic.phy  servingCell:vector  ETV
attr source  servingCell
attr title  "ID of the serving eNodeB for the UE, vector"
attr unit  ""
vector 999  CAIN.ueD2DTx[24].nic.phy  servingCell:vector  ETV
attr source  servingCell
attr title  "ID of the serving eNodeB for the UE, vector"
attr unit  ""
vector 1023  CAIN.eNodeB.sctp  "Throughput of Association 3"  ETV
vector 1045  CAIN.eNodeB1.sctp  "Throughput of Association 4"  ETV
vector 1067  CAIN.eNodeB.sctp  "Throughput of Association 1"  ETV
vector 1087  CAIN.eNodeB.sctp  "Fast Recovery State 1:10.0.5.2"  ETV
vector 1116  CAIN.eNodeB1.sctp  "Throughput of Association 2"  ETV
vector 1136  CAIN.eNodeB1.sctp  "Fast Recovery State 2:10.0.5.1"  ETV
vector 128  CAIN.eNodeB.x2ppp[0].queue  rcvdPk:vector(packetBytes)  ETV
attr interpolationmode  none
attr title  "received packets, vector(packetBytes)"
vector 130  CAIN.eNodeB.x2ppp[0].queue  queueingTime:vector  ETV
attr interpolationmode  none
attr title  "queueing time, vector"
vector 186  CAIN.eNodeB1.x2ppp[0].queue  rcvdPk:vector(packetBytes)  ETV
attr interpolationmode  none
attr title  "received packets, vector(packetBytes)"
vector 188  CAIN.eNodeB1.x2ppp[0].queue  queueingTime:vector  ETV
attr interpolationmode  none
attr title  "queueing time, vector"
vector 137  CAIN.eNodeB.x2ppp[0].ppp  rcvdPkFromHL:vector(packetBytes)  ETV
attr interpolationmode  none
attr source  packetReceivedFromUpper
attr title  "packets received from higher layer, vector(packetBytes)"
vector 133  CAIN.eNodeB.x2ppp[0].ppp  txPk:vector(packetBytes)  ETV
attr interpolationmode  none
attr source  packetSentToLower
attr title  "packets transmitted, vector(packetBytes)"
vector 195  CAIN.eNodeB1.x2ppp[0].ppp  rcvdPkFromHL:vector(packetBytes)  ETV
attr interpolationmode  none
attr source  packetReceivedFromUpper
attr title  "packets received from higher layer, vector(packetBytes)"
vector 191  CAIN.eNodeB1.x2ppp[0].ppp  txPk:vector(packetBytes)  ETV
attr interpolationmode  none
attr source  packetSentToLower
attr title  "packets transmitted, vector(packetBytes)"
vector 192  CAIN.eNodeB1.x2ppp[0].ppp  rxPkOk:vector(packetBytes)  ETV
attr interpolationmode  none
attr source  rxPkOk
attr title  "packets received OK, vector(packetBytes)"
vector 196  CAIN.eNodeB1.x2ppp[0].ppp  passedUpPk:vector(packetBytes)  ETV
attr interpolationmode  none
attr source  packetSentToUpper
attr title  "packets passed to higher layer, vector(packetBytes)"
vector 134  CAIN.eNodeB.x2ppp[0].ppp  rxPkOk:vector(packetBytes)  ETV
attr interpolationmode  none
attr source  rxPkOk
attr title  "packets received OK, vector(packetBytes)"
vector 138  CAIN.eNodeB.x2ppp[0].ppp  passedUpPk:vector(packetBytes)  ETV
attr interpolationmode  none
attr source  packetSentToUpper
attr title  "packets passed to higher layer, vector(packetBytes)"
vector 1165  CAIN.eNodeB1.sctp  "Throughput of Association 4"  ETV
vector 1042  CAIN.eNodeB1.sctp  "Peer Rwnd 4"  ETV
vector 1185  CAIN.eNodeB1.sctp  "Fast Recovery State 5:10.0.4.1"  ETV
vector 1212  CAIN.eNodeB1.sctp  "Fast Recovery State 5:10.0.2.2"  ETV
vector 1239  CAIN.eNodeB1.sctp  "Fast Recovery State 5:10.0.5.1"  ETV
vector 1268  CAIN.eNodeB.sctp  "Throughput of Association 3"  ETV
vector 1020  CAIN.eNodeB.sctp  "Peer Rwnd 3"  ETV
vector 1288  CAIN.eNodeB.sctp  "Fast Recovery State 6:10.0.4.2"  ETV
vector 1315  CAIN.eNodeB.sctp  "Fast Recovery State 6:10.0.3.2"  ETV
vector 1342  CAIN.eNodeB.sctp  "Fast Recovery State 6:10.0.5.2"  ETV
vector 1064  CAIN.eNodeB.sctp  "Peer Rwnd 1"  ETV
vector 1369  CAIN.eNodeB.sctp  "Fast Recovery State 1:10.0.4.2"  ETV
vector 1396  CAIN.eNodeB.sctp  "Fast Recovery State 1:10.0.3.2"  ETV
vector 1113  CAIN.eNodeB1.sctp  "Peer Rwnd 2"  ETV
vector 1423  CAIN.eNodeB1.sctp  "Fast Recovery State 2:10.0.4.1"  ETV
vector 1450  CAIN.eNodeB1.sctp  "Fast Recovery State 2:10.0.2.2"  ETV
vector 1195  CAIN.eNodeB1.sctp  "Slow Start Threshold 5:10.0.2.2"  ETV
vector 1196  CAIN.eNodeB1.sctp  "Congestion Window 5:10.0.2.2"  ETV
vector 1197  CAIN.eNodeB1.sctp  "Bandwidth 5:10.0.2.2"  ETV
vector 1200  CAIN.eNodeB1.sctp  "HB Sent 5:10.0.2.2"  ETV
vector 1193  CAIN.eNodeB1.sctp  "RTO 5:10.0.2.2"  ETV
vector 1168  CAIN.eNodeB1.sctp  "Slow Start Threshold 5:10.0.4.1"  ETV
vector 1169  CAIN.eNodeB1.sctp  "Congestion Window 5:10.0.4.1"  ETV
vector 1170  CAIN.eNodeB1.sctp  "Bandwidth 5:10.0.4.1"  ETV
vector 1173  CAIN.eNodeB1.sctp  "HB Sent 5:10.0.4.1"  ETV
vector 1166  CAIN.eNodeB1.sctp  "RTO 5:10.0.4.1"  ETV
vector 1222  CAIN.eNodeB1.sctp  "Slow Start Threshold 5:10.0.5.1"  ETV
vector 1223  CAIN.eNodeB1.sctp  "Congestion Window 5:10.0.5.1"  ETV
vector 1224  CAIN.eNodeB1.sctp  "Bandwidth 5:10.0.5.1"  ETV
vector 1220  CAIN.eNodeB1.sctp  "RTO 5:10.0.5.1"  ETV
vector 1298  CAIN.eNodeB.sctp  "Slow Start Threshold 6:10.0.3.2"  ETV
vector 1299  CAIN.eNodeB.sctp  "Congestion Window 6:10.0.3.2"  ETV
vector 1300  CAIN.eNodeB.sctp  "Bandwidth 6:10.0.3.2"  ETV
vector 1303  CAIN.eNodeB.sctp  "HB Sent 6:10.0.3.2"  ETV
vector 1296  CAIN.eNodeB.sctp  "RTO 6:10.0.3.2"  ETV
vector 1271  CAIN.eNodeB.sctp  "Slow Start Threshold 6:10.0.4.2"  ETV
vector 1272  CAIN.eNodeB.sctp  "Congestion Window 6:10.0.4.2"  ETV
vector 1273  CAIN.eNodeB.sctp  "Bandwidth 6:10.0.4.2"  ETV
vector 1276  CAIN.eNodeB.sctp  "HB Sent 6:10.0.4.2"  ETV
vector 1269  CAIN.eNodeB.sctp  "RTO 6:10.0.4.2"  ETV
vector 1325  CAIN.eNodeB.sctp  "Slow Start Threshold 6:10.0.5.2"  ETV
vector 1326  CAIN.eNodeB.sctp  "Congestion Window 6:10.0.5.2"  ETV
vector 1327  CAIN.eNodeB.sctp  "Bandwidth 6:10.0.5.2"  ETV
vector 1323  CAIN.eNodeB.sctp  "RTO 6:10.0.5.2"  ETV
vector 1076  CAIN.eNodeB.sctp  "HB ACK Sent 1:10.0.5.2"  ETV
vector 1077  CAIN.eNodeB.sctp  "HB Received 1:10.0.5.2"  ETV
vector 1125  CAIN.eNodeB1.sctp  "HB ACK Sent 2:10.0.5.1"  ETV
vector 1126  CAIN.eNodeB1.sctp  "HB Received 2:10.0.5.1"  ETV
vector 1379  CAIN.eNodeB.sctp  "Slow Start Threshold 1:10.0.3.2"  ETV
vector 1380  CAIN.eNodeB.sctp  "Congestion Window 1:10.0.3.2"  ETV
vector 1381  CAIN.eNodeB.sctp  "Bandwidth 1:10.0.3.2"  ETV
vector 1384  CAIN.eNodeB.sctp  "HB Sent 1:10.0.3.2"  ETV
vector 1377  CAIN.eNodeB.sctp  "RTO 1:10.0.3.2"  ETV
vector 1352  CAIN.eNodeB.sctp  "Slow Start Threshold 1:10.0.4.2"  ETV
vector 1353  CAIN.eNodeB.sctp  "Congestion Window 1:10.0.4.2"  ETV
vector 1354  CAIN.eNodeB.sctp  "Bandwidth 1:10.0.4.2"  ETV
vector 1357  CAIN.eNodeB.sctp  "HB Sent 1:10.0.4.2"  ETV
vector 1350  CAIN.eNodeB.sctp  "RTO 1:10.0.4.2"  ETV
vector 1070  CAIN.eNodeB.sctp  "Slow Start Threshold 1:10.0.5.2"  ETV
vector 1071  CAIN.eNodeB.sctp  "Congestion Window 1:10.0.5.2"  ETV
vector 1072  CAIN.eNodeB.sctp  "Bandwidth 1:10.0.5.2"  ETV
vector 1068  CAIN.eNodeB.sctp  "RTO 1:10.0.5.2"  ETV
vector 1433  CAIN.eNodeB1.sctp  "Slow Start Threshold 2:10.0.2.2"  ETV
vector 1434  CAIN.eNodeB1.sctp  "Congestion Window 2:10.0.2.2"  ETV
vector 1435  CAIN.eNodeB1.sctp  "Bandwidth 2:10.0.2.2"  ETV
vector 1438  CAIN.eNodeB1.sctp  "HB Sent 2:10.0.2.2"  ETV
vector 1431  CAIN.eNodeB1.sctp  "RTO 2:10.0.2.2"  ETV
vector 1406  CAIN.eNodeB1.sctp  "Slow Start Threshold 2:10.0.4.1"  ETV
vector 1407  CAIN.eNodeB1.sctp  "Congestion Window 2:10.0.4.1"  ETV
vector 1408  CAIN.eNodeB1.sctp  "Bandwidth 2:10.0.4.1"  ETV
vector 1411  CAIN.eNodeB1.sctp  "HB Sent 2:10.0.4.1"  ETV
vector 1404  CAIN.eNodeB1.sctp  "RTO 2:10.0.4.1"  ETV
vector 1119  CAIN.eNodeB1.sctp  "Slow Start Threshold 2:10.0.5.1"  ETV
vector 1120  CAIN.eNodeB1.sctp  "Congestion Window 2:10.0.5.1"  ETV
vector 1121  CAIN.eNodeB1.sctp  "Bandwidth 2:10.0.5.1"  ETV
vector 1117  CAIN.eNodeB1.sctp  "RTO 2:10.0.5.1"  ETV
vector 1333  CAIN.eNodeB.sctp  "HB ACK Received 6:10.0.5.2"  ETV
vector 1324  CAIN.eNodeB.sctp  "RTT 6:10.0.5.2"  ETV
vector 1230  CAIN.eNodeB1.sctp  "HB ACK Received 5:10.0.5.1"  ETV
vector 1221  CAIN.eNodeB1.sctp  "RTT 5:10.0.5.1"  ETV
vector 1331  CAIN.eNodeB.sctp  "HB ACK Sent 6:10.0.5.2"  ETV
vector 1332  CAIN.eNodeB.sctp  "HB Received 6:10.0.5.2"  ETV
vector 1228  CAIN.eNodeB1.sctp  "HB ACK Sent 5:10.0.5.1"  ETV
vector 1229  CAIN.eNodeB1.sctp  "HB Received 5:10.0.5.1"  ETV
vector 1127  CAIN.eNodeB1.sctp  "HB ACK Received 2:10.0.5.1"  ETV
vector 1118  CAIN.eNodeB1.sctp  "RTT 2:10.0.5.1"  ETV
vector 1078  CAIN.eNodeB.sctp  "HB ACK Received 1:10.0.5.2"  ETV
vector 1069  CAIN.eNodeB.sctp  "RTT 1:10.0.5.2"  ETV
vector 96  CAIN.eNodeB.nic.mac  receivedPacketFromLowerLayer:vector(packetBytes)  ETV
attr interpolationmode  none
attr source  receivedPacketFromLowerLayer
vector 1465  CAIN.eNodeB.sctp  "SendQueue of Association 6"  ETV
vector 1328  CAIN.eNodeB.sctp  "TSN Sent 6:10.0.5.2"  ETV
vector 1335  CAIN.eNodeB.sctp  "Outstanding Bytes 6:10.0.5.2"  ETV
vector 1008  CAIN.eNodeB.sctp  "Outstanding Bytes 3:Total"  ETV
vector 1334  CAIN.eNodeB.sctp  "Queued Sent Bytes 6:10.0.5.2"  ETV
vector 1007  CAIN.eNodeB.sctp  "Queued Sent Bytes 3:Total"  ETV
vector 1123  CAIN.eNodeB1.sctp  "TSN Received 2:10.0.5.1"  ETV
vector 1099  CAIN.eNodeB1.sctp  "Queued Received Bytes 2:Total"  ETV
vector 1095  CAIN.eNodeB1.sctp  "Advertised Receiver Window 2"  ETV
vector 1104  CAIN.eNodeB1.sctp  "Number of Total Gap Blocks Stored 2"  ETV
vector 1105  CAIN.eNodeB1.sctp  "Number of Revokable Gap Blocks Stored 2"  ETV
vector 1106  CAIN.eNodeB1.sctp  "Number of Non-Revokable Gap Blocks Stored 2"  ETV
vector 1107  CAIN.eNodeB1.sctp  "Number of Duplicate TSNs Stored 2"  ETV
vector 1111  CAIN.eNodeB1.sctp  "Length of SACK Sent 2"  ETV
vector 1108  CAIN.eNodeB1.sctp  "Number of Revokable Gap Blocks Sent 2"  ETV
vector 1109  CAIN.eNodeB1.sctp  "Number of Non-Revokable Gap Blocks Sent 2"  ETV
vector 1110  CAIN.eNodeB1.sctp  "Number of Duplicate TSNs Sent 2"  ETV
vector 1115  CAIN.eNodeB1.sctp  "End to End Delay of Association 2"  ETV
vector 199  CAIN.eNodeB1.x2App[0].client  rcvdPk:vector(packetBytes)  ETV
attr interpolationmode  none
attr source  rcvdPk
attr title  "packets received, vector(packetBytes)"
vector 1464  CAIN.eNodeB.sctp  "Number of Gap Blocks in Last SACK of Association 6"  ETV
vector 1009  CAIN.eNodeB.sctp  "Number of Revokable Gap Blocks in SACK 3"  ETV
vector 1010  CAIN.eNodeB.sctp  "Number of Non-Revokable Gap Blocks in SACK 3"  ETV
vector 1345  CAIN.eNodeB.sctp  "TSN Acked CumAck 6:10.0.5.2"  ETV
vector 1311  CAIN.eNodeB.sctp  "Number of Gap Acked Chunks in Last SACK 6:10.0.3.2"  ETV
vector 1312  CAIN.eNodeB.sctp  "Number of Non-Revokable Gap Acked Chunks in Last SACK 6:10.0.3.2"  ETV
vector 1313  CAIN.eNodeB.sctp  "Number of Gap Missed Chunks in Last SACK 6:10.0.3.2"  ETV
vector 1284  CAIN.eNodeB.sctp  "Number of Gap Acked Chunks in Last SACK 6:10.0.4.2"  ETV
vector 1285  CAIN.eNodeB.sctp  "Number of Non-Revokable Gap Acked Chunks in Last SACK 6:10.0.4.2"  ETV
vector 1286  CAIN.eNodeB.sctp  "Number of Gap Missed Chunks in Last SACK 6:10.0.4.2"  ETV
vector 1338  CAIN.eNodeB.sctp  "Number of Gap Acked Chunks in Last SACK 6:10.0.5.2"  ETV
vector 1339  CAIN.eNodeB.sctp  "Number of Non-Revokable Gap Acked Chunks in Last SACK 6:10.0.5.2"  ETV
vector 1340  CAIN.eNodeB.sctp  "Number of Gap Missed Chunks in Last SACK 6:10.0.5.2"  ETV
vector 1019  CAIN.eNodeB.sctp  "Arwnd in Last SACK 3"  ETV
vector 1347  CAIN.eNodeB.sctp  "TSN PseudoCumAck 6:10.0.5.2"  ETV
vector 1348  CAIN.eNodeB.sctp  "TSN RTXPseudoCumAck 6:10.0.5.2"  ETV
vector 1341  CAIN.eNodeB.sctp  "Partial Bytes Acked 6:10.0.5.2"  ETV
vector 1493  CAIN.ueD2DTx[13].tcp  tcpRcvQueueBytes  ETV
vector 1480  CAIN.ueD2DTx[13].tcp  "advertised window"  ETV
vector 1479  CAIN.ueD2DTx[13].tcp  "receive window"  ETV
vector 1482  CAIN.ueD2DTx[13].tcp  "sent ack"  ETV
vector 621  CAIN.ueD2DTx[13].nic.pdcpRrc  receivedPacketFromUpperLayer:vector(packetBytes)  ETV
attr interpolationmode  none
attr source  receivedPacketFromUpperLayer
vector 624  CAIN.ueD2DTx[13].nic.pdcpRrc  sentPacketToLowerLayer:vector(packetBytes)  ETV
attr interpolationmode  none
attr source  sentPacketToLowerLayer
vector 625  CAIN.ueD2DTx[13].nic.mac  receivedPacketFromUpperLayer:vector(packetBytes)  ETV
attr interpolationmode  none
attr source  receivedPacketFromUpperLayer
vector 635  CAIN.ueD2DTx[13].nic.mac  CainHopMessageSent:vector  ETV
attr interpolationmode  none
attr title  "# of Sent CAIN hop message, vector"
vector 628  CAIN.ueD2DTx[13].nic.mac  sentPacketToLowerLayer:vector(packetBytes)  ETV
attr interpolationmode  none
attr source  sentPacketToLowerLayer
vector 722  CAIN.ueD2DTx[16].nic.mac  receivedPacketFromLowerLayer:vector(packetBytes)  ETV
attr interpolationmode  none
attr source  receivedPacketFromLowerLayer
vector 724  CAIN.ueD2DTx[16].nic.mac  sentPacketToLowerLayer:vector(packetBytes)  ETV
attr interpolationmode  none
attr source  sentPacketToLowerLayer
vector 434  CAIN.ueD2DTx[7].nic.mac  receivedPacketFromLowerLayer:vector(packetBytes)  ETV
attr interpolationmode  none
attr source  receivedPacketFromLowerLayer
vector 436  CAIN.ueD2DTx[7].nic.mac  sentPacketToLowerLayer:vector(packetBytes)  ETV
attr interpolationmode  none
attr source  sentPacketToLowerLayer
vector 111  CAIN.eNodeB.nic.mac  racpkt:vector  ETV
attr interpolationmode  none
attr title  "eNB received racpkt message, vector"
vector 112  CAIN.eNodeB.nic.mac  racDistanceSignal:vector  ETV
attr interpolationmode  none
attr title  "Rac distance to enb, vector"
vector 113  CAIN.eNodeB.nic.mac  racServedDevsSignal:vector  ETV
attr interpolationmode  none
attr title  "# of devices served on rac arriavall, vector"
vector 106  CAIN.eNodeB.nic.mac  DistanceSignal:vector  ETV
attr interpolationmode  none
attr title  "Distance to enb, vector"
vector 101  CAIN.eNodeB.nic.mac  CainHopMessage:vector  ETV
attr interpolationmode  none
attr title  "eNB received CAIN hop message, vector"
vector 98  CAIN.eNodeB.nic.mac  sentPacketToLowerLayer:vector(packetBytes)  ETV
attr interpolationmode  none
attr source  sentPacketToLowerLayer
vector 441  CAIN.ueD2DTx[7].nic.mac  DropedHopMessage:vector  ETV
attr interpolationmode  none
attr title  "Droped Hop CAIN message due to RB not available, vector"
vector 1517  CAIN.ueD2DTx[18].tcp  tcpRcvQueueBytes  ETV
vector 1504  CAIN.ueD2DTx[18].tcp  "advertised window"  ETV
vector 1503  CAIN.ueD2DTx[18].tcp  "receive window"  ETV
vector 1506  CAIN.ueD2DTx[18].tcp  "sent ack"  ETV
vector 781  CAIN.ueD2DTx[18].nic.pdcpRrc  receivedPacketFromUpperLayer:vector(packetBytes)  ETV
attr interpolationmode  none
attr source  receivedPacketFromUpperLayer
vector 784  CAIN.ueD2DTx[18].nic.pdcpRrc  sentPacketToLowerLayer:vector(packetBytes)  ETV
attr interpolationmode  none
attr source  sentPacketToLowerLayer
vector 785  CAIN.ueD2DTx[18].nic.mac  receivedPacketFromUpperLayer:vector(packetBytes)  ETV
attr interpolationmode  none
attr source  receivedPacketFromUpperLayer
vector 795  CAIN.ueD2DTx[18].nic.mac  CainHopMessageSent:vector  ETV
attr interpolationmode  none
attr title  "# of Sent CAIN hop message, vector"
vector 788  CAIN.ueD2DTx[18].nic.mac  sentPacketToLowerLayer:vector(packetBytes)  ETV
attr interpolationmode  none
attr source  sentPacketToLowerLayer
vector 274  CAIN.ueD2DTx[2].nic.mac  receivedPacketFromLowerLayer:vector(packetBytes)  ETV
attr interpolationmode  none
attr source  receivedPacketFromLowerLayer
vector 276  CAIN.ueD2DTx[2].nic.mac  sentPacketToLowerLayer:vector(packetBytes)  ETV
attr interpolationmode  none
attr source  sentPacketToLowerLayer
vector 338  CAIN.ueD2DTx[4].nic.mac  receivedPacketFromLowerLayer:vector(packetBytes)  ETV
attr interpolationmode  none
attr source  receivedPacketFromLowerLayer
vector 340  CAIN.ueD2DTx[4].nic.mac  sentPacketToLowerLayer:vector(packetBytes)  ETV
attr interpolationmode  none
attr source  sentPacketToLowerLayer
vector 345  CAIN.ueD2DTx[4].nic.mac  DropedHopMessage:vector  ETV
attr interpolationmode  none
attr title  "Droped Hop CAIN message due to RB not available, vector"
vector 1541  CAIN.ueD2DTx[6].tcp  tcpRcvQueueBytes  ETV
vector 1528  CAIN.ueD2DTx[6].tcp  "advertised window"  ETV
vector 1527  CAIN.ueD2DTx[6].tcp  "receive window"  ETV
vector 1530  CAIN.ueD2DTx[6].tcp  "sent ack"  ETV
vector 397  CAIN.ueD2DTx[6].nic.pdcpRrc  receivedPacketFromUpperLayer:vector(packetBytes)  ETV
attr interpolationmode  none
attr source  receivedPacketFromUpperLayer
vector 400  CAIN.ueD2DTx[6].nic.pdcpRrc  sentPacketToLowerLayer:vector(packetBytes)  ETV
attr interpolationmode  none
attr source  sentPacketToLowerLayer
vector 401  CAIN.ueD2DTx[6].nic.mac  receivedPacketFromUpperLayer:vector(packetBytes)  ETV
attr interpolationmode  none
attr source  receivedPacketFromUpperLayer
vector 410  CAIN.ueD2DTx[6].nic.mac  CainMessageSent:vector  ETV
attr interpolationmode  none
attr title  "# of Sent CAIN message, vector"
vector 404  CAIN.ueD2DTx[6].nic.mac  sentPacketToLowerLayer:vector(packetBytes)  ETV
attr interpolationmode  none
attr source  sentPacketToLowerLayer
vector 1565  CAIN.ueD2DTx[14].tcp  tcpRcvQueueBytes  ETV
vector 1552  CAIN.ueD2DTx[14].tcp  "advertised window"  ETV
vector 1551  CAIN.ueD2DTx[14].tcp  "receive window"  ETV
vector 1554  CAIN.ueD2DTx[14].tcp  "sent ack"  ETV
vector 653  CAIN.ueD2DTx[14].nic.pdcpRrc  receivedPacketFromUpperLayer:vector(packetBytes)  ETV
attr interpolationmode  none
attr source  receivedPacketFromUpperLayer
vector 656  CAIN.ueD2DTx[14].nic.pdcpRrc  sentPacketToLowerLayer:vector(packetBytes)  ETV
attr interpolationmode  none
attr source  sentPacketToLowerLayer
vector 657  CAIN.ueD2DTx[14].nic.mac  receivedPacketFromUpperLayer:vector(packetBytes)  ETV
attr interpolationmode  none
attr source  receivedPacketFromUpperLayer
vector 667  CAIN.ueD2DTx[14].nic.mac  CainHopMessageSent:vector  ETV
attr interpolationmode  none
attr title  "# of Sent CAIN hop message, vector"
vector 660  CAIN.ueD2DTx[14].nic.mac  sentPacketToLowerLayer:vector(packetBytes)  ETV
attr interpolationmode  none
attr source  sentPacketToLowerLayer
vector 914  CAIN.ueD2DTx[22].nic.mac  receivedPacketFromLowerLayer:vector(packetBytes)  ETV
attr interpolationmode  none
attr source  receivedPacketFromLowerLayer
vector 916  CAIN.ueD2DTx[22].nic.mac  sentPacketToLowerLayer:vector(packetBytes)  ETV
attr interpolationmode  none
attr source  sentPacketToLowerLayer
vector 1589  CAIN.ueD2DTx[12].tcp  tcpRcvQueueBytes  ETV
vector 1576  CAIN.ueD2DTx[12].tcp  "advertised window"  ETV
vector 1575  CAIN.ueD2DTx[12].tcp  "receive window"  ETV
vector 1578  CAIN.ueD2DTx[12].tcp  "sent ack"  ETV
vector 589  CAIN.ueD2DTx[12].nic.pdcpRrc  receivedPacketFromUpperLayer:vector(packetBytes)  ETV
attr interpolationmode  none
attr source  receivedPacketFromUpperLayer
vector 592  CAIN.ueD2DTx[12].nic.pdcpRrc  sentPacketToLowerLayer:vector(packetBytes)  ETV
attr interpolationmode  none
attr source  sentPacketToLowerLayer
vector 593  CAIN.ueD2DTx[12].nic.mac  receivedPacketFromUpperLayer:vector(packetBytes)  ETV
attr interpolationmode  none
attr source  receivedPacketFromUpperLayer
vector 603  CAIN.ueD2DTx[12].nic.mac  CainHopMessageSent:vector  ETV
attr interpolationmode  none
attr title  "# of Sent CAIN hop message, vector"
vector 596  CAIN.ueD2DTx[12].nic.mac  sentPacketToLowerLayer:vector(packetBytes)  ETV
attr interpolationmode  none
attr source  sentPacketToLowerLayer
vector 402  CAIN.ueD2DTx[6].nic.mac  receivedPacketFromLowerLayer:vector(packetBytes)  ETV
attr interpolationmode  none
attr source  receivedPacketFromLowerLayer
vector 100  CAIN.eNodeB.nic.mac  CainMessage:vector  ETV
attr interpolationmode  none
attr title  "eNB received CAIN message, vector"
vector 920  CAIN.ueD2DTx[22].nic.mac  DropedCainMessage:vector  ETV
attr interpolationmode  none
attr title  "Droped CAIN message due to RB not available, vector"
vector 921  CAIN.ueD2DTx[22].nic.mac  DropedHopMessage:vector  ETV
attr interpolationmode  none
attr title  "Droped Hop CAIN message due to RB not available, vector"
vector 1613  CAIN.ueD2DTx[2].tcp  tcpRcvQueueBytes  ETV
vector 1600  CAIN.ueD2DTx[2].tcp  "advertised window"  ETV
vector 1599  CAIN.ueD2DTx[2].tcp  "receive window"  ETV
vector 1602  CAIN.ueD2DTx[2].tcp  "sent ack"  ETV
vector 269  CAIN.ueD2DTx[2].nic.pdcpRrc  receivedPacketFromUpperLayer:vector(packetBytes)  ETV
attr interpolationmode  none
attr source  receivedPacketFromUpperLayer
vector 272  CAIN.ueD2DTx[2].nic.pdcpRrc  sentPacketToLowerLayer:vector(packetBytes)  ETV
attr interpolationmode  none
attr source  sentPacketToLowerLayer
vector 273  CAIN.ueD2DTx[2].nic.mac  receivedPacketFromUpperLayer:vector(packetBytes)  ETV
attr interpolationmode  none
attr source  receivedPacketFromUpperLayer
vector 283  CAIN.ueD2DTx[2].nic.mac  CainHopMessageSent:vector  ETV
attr interpolationmode  none
attr title  "# of Sent CAIN hop message, vector"
vector 242  CAIN.ueD2DTx[1].nic.mac  receivedPacketFromLowerLayer:vector(packetBytes)  ETV
attr interpolationmode  none
attr source  receivedPacketFromLowerLayer
vector 244  CAIN.ueD2DTx[1].nic.mac  sentPacketToLowerLayer:vector(packetBytes)  ETV
attr interpolationmode  none
attr source  sentPacketToLowerLayer
vector 1637  CAIN.ueD2DTx[15].tcp  tcpRcvQueueBytes  ETV
vector 1624  CAIN.ueD2DTx[15].tcp  "advertised window"  ETV
vector 1623  CAIN.ueD2DTx[15].tcp  "receive window"  ETV
vector 1626  CAIN.ueD2DTx[15].tcp  "sent ack"  ETV
vector 685  CAIN.ueD2DTx[15].nic.pdcpRrc  receivedPacketFromUpperLayer:vector(packetBytes)  ETV
attr interpolationmode  none
attr source  receivedPacketFromUpperLayer
vector 688  CAIN.ueD2DTx[15].nic.pdcpRrc  sentPacketToLowerLayer:vector(packetBytes)  ETV
attr interpolationmode  none
attr source  sentPacketToLowerLayer
vector 689  CAIN.ueD2DTx[15].nic.mac  receivedPacketFromUpperLayer:vector(packetBytes)  ETV
attr interpolationmode  none
attr source  receivedPacketFromUpperLayer
vector 692  CAIN.ueD2DTx[15].nic.mac  sentPacketToLowerLayer:vector(packetBytes)  ETV
attr interpolationmode  none
attr source  sentPacketToLowerLayer
vector 1661  CAIN.ueD2DTx[3].tcp  tcpRcvQueueBytes  ETV
vector 1648  CAIN.ueD2DTx[3].tcp  "advertised window"  ETV
vector 1647  CAIN.ueD2DTx[3].tcp  "receive window"  ETV
vector 1650  CAIN.ueD2DTx[3].tcp  "sent ack"  ETV
vector 301  CAIN.ueD2DTx[3].nic.pdcpRrc  receivedPacketFromUpperLayer:vector(packetBytes)  ETV
attr interpolationmode  none
attr source  receivedPacketFromUpperLayer
vector 304  CAIN.ueD2DTx[3].nic.pdcpRrc  sentPacketToLowerLayer:vector(packetBytes)  ETV
attr interpolationmode  none
attr source  sentPacketToLowerLayer
vector 305  CAIN.ueD2DTx[3].nic.mac  receivedPacketFromUpperLayer:vector(packetBytes)  ETV
attr interpolationmode  none
attr source  receivedPacketFromUpperLayer
vector 315  CAIN.ueD2DTx[3].nic.mac  CainHopMessageSent:vector  ETV
attr interpolationmode  none
attr title  "# of Sent CAIN hop message, vector"
vector 308  CAIN.ueD2DTx[3].nic.mac  sentPacketToLowerLayer:vector(packetBytes)  ETV
attr interpolationmode  none
attr source  sentPacketToLowerLayer
vector 690  CAIN.ueD2DTx[15].nic.mac  receivedPacketFromLowerLayer:vector(packetBytes)  ETV
attr interpolationmode  none
attr source  receivedPacketFromLowerLayer
vector 691  CAIN.ueD2DTx[15].nic.mac  sentPacketToUpperLayer:vector(packetBytes)  ETV
attr interpolationmode  none
attr source  sentPacketToUpperLayer
vector 115  CAIN.eNodeB.nic.phy  averageCqiUlvect:vector  ETV
attr source  averageCqiUlvect
attr title  "Average Cqi reported in UL, vector"
attr unit  cqi
vector 1685  CAIN.ueD2DTx[8].tcp  tcpRcvQueueBytes  ETV
vector 1672  CAIN.ueD2DTx[8].tcp  "advertised window"  ETV
vector 1671  CAIN.ueD2DTx[8].tcp  "receive window"  ETV
vector 1674  CAIN.ueD2DTx[8].tcp  "sent ack"  ETV
vector 461  CAIN.ueD2DTx[8].nic.pdcpRrc  receivedPacketFromUpperLayer:vector(packetBytes)  ETV
attr interpolationmode  none
attr source  receivedPacketFromUpperLayer
vector 464  CAIN.ueD2DTx[8].nic.pdcpRrc  sentPacketToLowerLayer:vector(packetBytes)  ETV
attr interpolationmode  none
attr source  sentPacketToLowerLayer
vector 465  CAIN.ueD2DTx[8].nic.mac  receivedPacketFromUpperLayer:vector(packetBytes)  ETV
attr interpolationmode  none
attr source  receivedPacketFromUpperLayer
vector 475  CAIN.ueD2DTx[8].nic.mac  CainHopMessageSent:vector  ETV
attr interpolationmode  none
attr title  "# of Sent CAIN hop message, vector"
vector 468  CAIN.ueD2DTx[8].nic.mac  sentPacketToLowerLayer:vector(packetBytes)  ETV
attr interpolationmode  none
attr source  sentPacketToLowerLayer
vector 97  CAIN.eNodeB.nic.mac  sentPacketToUpperLayer:vector(packetBytes)  ETV
attr interpolationmode  none
attr source  sentPacketToUpperLayer
vector 99  CAIN.eNodeB.nic.mac  measuredItbs:vector  ETV
attr source  measuredItbs
attr title  "TBS index, vector"
attr unit  ""
vector 1709  CAIN.ueD2DTx[23].tcp  tcpRcvQueueBytes  ETV
vector 1696  CAIN.ueD2DTx[23].tcp  "advertised window"  ETV
vector 1695  CAIN.ueD2DTx[23].tcp  "receive window"  ETV
vector 1698  CAIN.ueD2DTx[23].tcp  "sent ack"  ETV
vector 941  CAIN.ueD2DTx[23].nic.pdcpRrc  receivedPacketFromUpperLayer:vector(packetBytes)  ETV
attr interpolationmode  none
attr source  receivedPacketFromUpperLayer
vector 944  CAIN.ueD2DTx[23].nic.pdcpRrc  sentPacketToLowerLayer:vector(packetBytes)  ETV
attr interpolationmode  none
attr source  sentPacketToLowerLayer
vector 945  CAIN.ueD2DTx[23].nic.mac  receivedPacketFromUpperLayer:vector(packetBytes)  ETV
attr interpolationmode  none
attr source  receivedPacketFromUpperLayer
vector 955  CAIN.ueD2DTx[23].nic.mac  CainHopMessageSent:vector  ETV
attr interpolationmode  none
attr title  "# of Sent CAIN hop message, vector"
vector 948  CAIN.ueD2DTx[23].nic.mac  sentPacketToLowerLayer:vector(packetBytes)  ETV
attr interpolationmode  none
attr source  sentPacketToLowerLayer
vector 1733  CAIN.ueD2DTx[11].tcp  tcpRcvQueueBytes  ETV
vector 1720  CAIN.ueD2DTx[11].tcp  "advertised window"  ETV
vector 1719  CAIN.ueD2DTx[11].tcp  "receive window"  ETV
vector 1722  CAIN.ueD2DTx[11].tcp  "sent ack"  ETV
vector 557  CAIN.ueD2DTx[11].nic.pdcpRrc  receivedPacketFromUpperLayer:vector(packetBytes)  ETV
attr interpolationmode  none
attr source  receivedPacketFromUpperLayer
vector 560  CAIN.ueD2DTx[11].nic.pdcpRrc  sentPacketToLowerLayer:vector(packetBytes)  ETV
attr interpolationmode  none
attr source  sentPacketToLowerLayer
vector 561  CAIN.ueD2DTx[11].nic.mac  receivedPacketFromUpperLayer:vector(packetBytes)  ETV
attr interpolationmode  none
attr source  receivedPacketFromUpperLayer
vector 92  CAIN.eNodeB.nic.pdcpRrc  receivedPacketFromLowerLayer:vector(packetBytes)  ETV
attr interpolationmode  none
attr source  receivedPacketFromLowerLayer
vector 93  CAIN.eNodeB.nic.pdcpRrc  sentPacketToUpperLayer:vector(packetBytes)  ETV
attr interpolationmode  none
attr source  sentPacketToUpperLayer
vector 86  CAIN.eNodeB.udp  sentPk:vector(packetBytes)  ETV
attr interpolationmode  none
attr source  sentPk
attr title  "packets sent, vector(packetBytes)"
vector 564  CAIN.ueD2DTx[11].nic.mac  sentPacketToLowerLayer:vector(packetBytes)  ETV
attr interpolationmode  none
attr source  sentPacketToLowerLayer
vector 145  CAIN.eNodeB1.udp  rcvdPk:vector(packetBytes)  ETV
attr interpolationmode  none
attr source  rcvdPk
attr title  "packets received, vector(packetBytes)"
vector 146  CAIN.eNodeB1.udp  passedUpPk:vector(count)  ETV
attr interpolationmode  none
attr title  "packets passed up, vector(count)"
vector 562  CAIN.ueD2DTx[11].nic.mac  receivedPacketFromLowerLayer:vector(packetBytes)  ETV
attr interpolationmode  none
attr source  receivedPacketFromLowerLayer
vector 563  CAIN.ueD2DTx[11].nic.mac  sentPacketToUpperLayer:vector(packetBytes)  ETV
attr interpolationmode  none
attr source  sentPacketToUpperLayer
vector 1757  CAIN.ueD2DTx[7].tcp  tcpRcvQueueBytes  ETV
vector 1744  CAIN.ueD2DTx[7].tcp  "advertised window"  ETV
vector 1743  CAIN.ueD2DTx[7].tcp  "receive window"  ETV
vector 1746  CAIN.ueD2DTx[7].tcp  "sent ack"  ETV
vector 429  CAIN.ueD2DTx[7].nic.pdcpRrc  receivedPacketFromUpperLayer:vector(packetBytes)  ETV
attr interpolationmode  none
attr source  receivedPacketFromUpperLayer
vector 432  CAIN.ueD2DTx[7].nic.pdcpRrc  sentPacketToLowerLayer:vector(packetBytes)  ETV
attr interpolationmode  none
attr source  sentPacketToLowerLayer
vector 433  CAIN.ueD2DTx[7].nic.mac  receivedPacketFromUpperLayer:vector(packetBytes)  ETV
attr interpolationmode  none
attr source  receivedPacketFromUpperLayer
vector 149  CAIN.eNodeB1.nic.pdcpRrc  receivedPacketFromUpperLayer:vector(packetBytes)  ETV
attr interpolationmode  none
attr source  receivedPacketFromUpperLayer
vector 152  CAIN.eNodeB1.nic.pdcpRrc  sentPacketToLowerLayer:vector(packetBytes)  ETV
attr interpolationmode  none
attr source  sentPacketToLowerLayer
vector 1461  CAIN.eNodeB1.sctp  "SendQueue of Association 5"  ETV
vector 1225  CAIN.eNodeB1.sctp  "TSN Sent 5:10.0.5.1"  ETV
vector 1232  CAIN.eNodeB1.sctp  "Outstanding Bytes 5:10.0.5.1"  ETV
vector 1030  CAIN.eNodeB1.sctp  "Outstanding Bytes 4:Total"  ETV
vector 1231  CAIN.eNodeB1.sctp  "Queued Sent Bytes 5:10.0.5.1"  ETV
vector 1029  CAIN.eNodeB1.sctp  "Queued Sent Bytes 4:Total"  ETV
vector 153  CAIN.eNodeB1.nic.mac  receivedPacketFromUpperLayer:vector(packetBytes)  ETV
attr interpolationmode  none
attr source  receivedPacketFromUpperLayer
vector 117  CAIN.eNodeB.pppIf.queue  rcvdPk:vector(packetBytes)  ETV
attr interpolationmode  none
attr title  "received packets, vector(packetBytes)"
vector 119  CAIN.eNodeB.pppIf.queue  queueingTime:vector  ETV
attr interpolationmode  none
attr title  "queueing time, vector"
vector 126  CAIN.eNodeB.pppIf.ppp  rcvdPkFromHL:vector(packetBytes)  ETV
attr interpolationmode  none
attr source  packetReceivedFromUpper
attr title  "packets received from higher layer, vector(packetBytes)"
vector 122  CAIN.eNodeB.pppIf.ppp  txPk:vector(packetBytes)  ETV
attr interpolationmode  none
attr source  packetSentToLower
attr title  "packets transmitted, vector(packetBytes)"
vector 1074  CAIN.eNodeB.sctp  "TSN Received 1:10.0.5.2"  ETV
vector 1050  CAIN.eNodeB.sctp  "Queued Received Bytes 1:Total"  ETV
vector 1046  CAIN.eNodeB.sctp  "Advertised Receiver Window 1"  ETV
vector 1055  CAIN.eNodeB.sctp  "Number of Total Gap Blocks Stored 1"  ETV
vector 1056  CAIN.eNodeB.sctp  "Number of Revokable Gap Blocks Stored 1"  ETV
vector 1057  CAIN.eNodeB.sctp  "Number of Non-Revokable Gap Blocks Stored 1"  ETV
vector 1058  CAIN.eNodeB.sctp  "Number of Duplicate TSNs Stored 1"  ETV
vector 1062  CAIN.eNodeB.sctp  "Length of SACK Sent 1"  ETV
vector 1059  CAIN.eNodeB.sctp  "Number of Revokable Gap Blocks Sent 1"  ETV
vector 1060  CAIN.eNodeB.sctp  "Number of Non-Revokable Gap Blocks Sent 1"  ETV
vector 1061  CAIN.eNodeB.sctp  "Number of Duplicate TSNs Sent 1"  ETV
vector 1066  CAIN.eNodeB.sctp  "End to End Delay of Association 1"  ETV
vector 141  CAIN.eNodeB.x2App[0].client  rcvdPk:vector(packetBytes)  ETV
attr interpolationmode  none
attr source  rcvdPk
attr title  "packets received, vector(packetBytes)"
vector 59  CAIN.pgw.ppp[0].ppp  rxPkOk:vector(packetBytes)  ETV
attr interpolationmode  none
attr source  rxPkOk
attr title  "packets received OK, vector(packetBytes)"
vector 63  CAIN.pgw.ppp[0].ppp  passedUpPk:vector(packetBytes)  ETV
attr interpolationmode  none
attr source  packetSentToUpper
attr title  "packets passed to higher layer, vector(packetBytes)"
vector 44  CAIN.pgw.udp  rcvdPk:vector(packetBytes)  ETV
attr interpolationmode  none
attr source  rcvdPk
attr title  "packets received, vector(packetBytes)"
vector 45  CAIN.pgw.udp  passedUpPk:vector(count)  ETV
attr interpolationmode  none
attr title  "packets passed up, vector(count)"
vector 43  CAIN.pgw.udp  sentPk:vector(packetBytes)  ETV
attr interpolationmode  none
attr source  sentPk
attr title  "packets sent, vector(packetBytes)"
vector 64  CAIN.pgw.ppp[1].queue  rcvdPk:vector(packetBytes)  ETV
attr interpolationmode  none
attr title  "received packets, vector(packetBytes)"
vector 66  CAIN.pgw.ppp[1].queue  queueingTime:vector  ETV
attr interpolationmode  none
attr title  "queueing time, vector"
vector 73  CAIN.pgw.ppp[1].ppp  rcvdPkFromHL:vector(packetBytes)  ETV
attr interpolationmode  none
attr source  packetReceivedFromUpper
attr title  "packets received from higher layer, vector(packetBytes)"
vector 69  CAIN.pgw.ppp[1].ppp  txPk:vector(packetBytes)  ETV
attr interpolationmode  none
attr source  packetSentToLower
attr title  "packets transmitted, vector(packetBytes)"
vector 1460  CAIN.eNodeB1.sctp  "Number of Gap Blocks in Last SACK of Association 5"  ETV
vector 1031  CAIN.eNodeB1.sctp  "Number of Revokable Gap Blocks in SACK 4"  ETV
vector 1032  CAIN.eNodeB1.sctp  "Number of Non-Revokable Gap Blocks in SACK 4"  ETV
vector 1242  CAIN.eNodeB1.sctp  "TSN Acked CumAck 5:10.0.5.1"  ETV
vector 1208  CAIN.eNodeB1.sctp  "Number of Gap Acked Chunks in Last SACK 5:10.0.2.2"  ETV
vector 1209  CAIN.eNodeB1.sctp  "Number of Non-Revokable Gap Acked Chunks in Last SACK 5:10.0.2.2"  ETV
vector 1210  CAIN.eNodeB1.sctp  "Number of Gap Missed Chunks in Last SACK 5:10.0.2.2"  ETV
vector 1181  CAIN.eNodeB1.sctp  "Number of Gap Acked Chunks in Last SACK 5:10.0.4.1"  ETV
vector 1182  CAIN.eNodeB1.sctp  "Number of Non-Revokable Gap Acked Chunks in Last SACK 5:10.0.4.1"  ETV
vector 1183  CAIN.eNodeB1.sctp  "Number of Gap Missed Chunks in Last SACK 5:10.0.4.1"  ETV
vector 1235  CAIN.eNodeB1.sctp  "Number of Gap Acked Chunks in Last SACK 5:10.0.5.1"  ETV
vector 1236  CAIN.eNodeB1.sctp  "Number of Non-Revokable Gap Acked Chunks in Last SACK 5:10.0.5.1"  ETV
vector 1237  CAIN.eNodeB1.sctp  "Number of Gap Missed Chunks in Last SACK 5:10.0.5.1"  ETV
vector 1041  CAIN.eNodeB1.sctp  "Arwnd in Last SACK 4"  ETV
vector 1244  CAIN.eNodeB1.sctp  "TSN PseudoCumAck 5:10.0.5.1"  ETV
vector 1245  CAIN.eNodeB1.sctp  "TSN RTXPseudoCumAck 5:10.0.5.1"  ETV
vector 1238  CAIN.eNodeB1.sctp  "Partial Bytes Acked 5:10.0.5.1"  ETV
vector 181  CAIN.eNodeB1.pppIf.ppp  rxPkOk:vector(packetBytes)  ETV
attr interpolationmode  none
attr source  rxPkOk
attr title  "packets received OK, vector(packetBytes)"
vector 185  CAIN.eNodeB1.pppIf.ppp  passedUpPk:vector(packetBytes)  ETV
attr interpolationmode  none
attr source  packetSentToUpper
attr title  "packets passed to higher layer, vector(packetBytes)"
vector 1781  CAIN.ueD2DTx[24].tcp  tcpRcvQueueBytes  ETV
vector 1768  CAIN.ueD2DTx[24].tcp  "advertised window"  ETV
vector 1767  CAIN.ueD2DTx[24].tcp  "receive window"  ETV
vector 1770  CAIN.ueD2DTx[24].tcp  "sent ack"  ETV
vector 973  CAIN.ueD2DTx[24].nic.pdcpRrc  receivedPacketFromUpperLayer:vector(packetBytes)  ETV
attr interpolationmode  none
attr source  receivedPacketFromUpperLayer
vector 976  CAIN.ueD2DTx[24].nic.pdcpRrc  sentPacketToLowerLayer:vector(packetBytes)  ETV
attr interpolationmode  none
attr source  sentPacketToLowerLayer
vector 977  CAIN.ueD2DTx[24].nic.mac  receivedPacketFromUpperLayer:vector(packetBytes)  ETV
attr interpolationmode  none
attr source  receivedPacketFromUpperLayer
vector 1805  CAIN.ueD2DTx[4].tcp  tcpRcvQueueBytes  ETV
vector 1792  CAIN.ueD2DTx[4].tcp  "advertised window"  ETV
vector 1791  CAIN.ueD2DTx[4].tcp  "receive window"  ETV
vector 1794  CAIN.ueD2DTx[4].tcp  "sent ack"  ETV
vector 333  CAIN.ueD2DTx[4].nic.pdcpRrc  receivedPacketFromUpperLayer:vector(packetBytes)  ETV
attr interpolationmode  none
attr source  receivedPacketFromUpperLayer
vector 336  CAIN.ueD2DTx[4].nic.pdcpRrc  sentPacketToLowerLayer:vector(packetBytes)  ETV
attr interpolationmode  none
attr source  sentPacketToLowerLayer
vector 337  CAIN.ueD2DTx[4].nic.mac  receivedPacketFromUpperLayer:vector(packetBytes)  ETV
attr interpolationmode  none
attr source  receivedPacketFromUpperLayer
vector 980  CAIN.ueD2DTx[24].nic.mac  sentPacketToLowerLayer:vector(packetBytes)  ETV
attr interpolationmode  none
attr source  sentPacketToLowerLayer
vector 154  CAIN.eNodeB1.nic.mac  receivedPacketFromLowerLayer:vector(packetBytes)  ETV
attr interpolationmode  none
attr source  receivedPacketFromLowerLayer
vector 169  CAIN.eNodeB1.nic.mac  racpkt:vector  ETV
attr interpolationmode  none
attr title  "eNB received racpkt message, vector"
vector 170  CAIN.eNodeB1.nic.mac  racDistanceSignal:vector  ETV
attr interpolationmode  none
attr title  "Rac distance to enb, vector"
vector 171  CAIN.eNodeB1.nic.mac  racServedDevsSignal:vector  ETV
attr interpolationmode  none
attr title  "# of devices served on rac arriavall, vector"
vector 156  CAIN.eNodeB1.nic.mac  sentPacketToLowerLayer:vector(packetBytes)  ETV
attr interpolationmode  none
attr source  sentPacketToLowerLayer
vector 435  CAIN.ueD2DTx[7].nic.mac  sentPacketToUpperLayer:vector(packetBytes)  ETV
attr interpolationmode  none
attr source  sentPacketToUpperLayer
vector 978  CAIN.ueD2DTx[24].nic.mac  receivedPacketFromLowerLayer:vector(packetBytes)  ETV
attr interpolationmode  none
attr source  receivedPacketFromLowerLayer
vector 979  CAIN.ueD2DTx[24].nic.mac  sentPacketToUpperLayer:vector(packetBytes)  ETV
attr interpolationmode  none
attr source  sentPacketToUpperLayer
vector 109  CAIN.eNodeB.nic.mac  ServedHopDevs:vector  ETV
attr interpolationmode  none
attr title  "# of devices served on hop forwarding, vector"
vector 1829  CAIN.ueD2DTx[16].tcp  tcpRcvQueueBytes  ETV
vector 1816  CAIN.ueD2DTx[16].tcp  "advertised window"  ETV
vector 1815  CAIN.ueD2DTx[16].tcp  "receive window"  ETV
vector 1818  CAIN.ueD2DTx[16].tcp  "sent ack"  ETV
vector 717  CAIN.ueD2DTx[16].nic.pdcpRrc  receivedPacketFromUpperLayer:vector(packetBytes)  ETV
attr interpolationmode  none
attr source  receivedPacketFromUpperLayer
vector 720  CAIN.ueD2DTx[16].nic.pdcpRrc  sentPacketToLowerLayer:vector(packetBytes)  ETV
attr interpolationmode  none
attr source  sentPacketToLowerLayer
vector 721  CAIN.ueD2DTx[16].nic.mac  receivedPacketFromUpperLayer:vector(packetBytes)  ETV
attr interpolationmode  none
attr source  receivedPacketFromUpperLayer
vector 730  CAIN.ueD2DTx[16].nic.mac  CainMessageSent:vector  ETV
attr interpolationmode  none
attr title  "# of Sent CAIN message, vector"
vector 1853  CAIN.ueD2DTx[1].tcp  tcpRcvQueueBytes  ETV
vector 1840  CAIN.ueD2DTx[1].tcp  "advertised window"  ETV
vector 1839  CAIN.ueD2DTx[1].tcp  "receive window"  ETV
vector 1842  CAIN.ueD2DTx[1].tcp  "sent ack"  ETV
vector 237  CAIN.ueD2DTx[1].nic.pdcpRrc  receivedPacketFromUpperLayer:vector(packetBytes)  ETV
attr interpolationmode  none
attr source  receivedPacketFromUpperLayer
vector 240  CAIN.ueD2DTx[1].nic.pdcpRrc  sentPacketToLowerLayer:vector(packetBytes)  ETV
attr interpolationmode  none
attr source  sentPacketToLowerLayer
vector 241  CAIN.ueD2DTx[1].nic.mac  receivedPacketFromUpperLayer:vector(packetBytes)  ETV
attr interpolationmode  none
attr source  receivedPacketFromUpperLayer
vector 108  CAIN.eNodeB.nic.mac  ServedDevs:vector  ETV
attr interpolationmode  none
attr title  "# of devices served on cain forwarding, vector"
vector 1877  CAIN.ueD2DTx[20].tcp  tcpRcvQueueBytes  ETV
vector 1864  CAIN.ueD2DTx[20].tcp  "advertised window"  ETV
vector 1863  CAIN.ueD2DTx[20].tcp  "receive window"  ETV
vector 1866  CAIN.ueD2DTx[20].tcp  "sent ack"  ETV
vector 845  CAIN.ueD2DTx[20].nic.pdcpRrc  receivedPacketFromUpperLayer:vector(packetBytes)  ETV
attr interpolationmode  none
attr source  receivedPacketFromUpperLayer
vector 848  CAIN.ueD2DTx[20].nic.pdcpRrc  sentPacketToLowerLayer:vector(packetBytes)  ETV
attr interpolationmode  none
attr source  sentPacketToLowerLayer
vector 849  CAIN.ueD2DTx[20].nic.mac  receivedPacketFromUpperLayer:vector(packetBytes)  ETV
attr interpolationmode  none
attr source  receivedPacketFromUpperLayer
vector 859  CAIN.ueD2DTx[20].nic.mac  CainHopMessageSent:vector  ETV
attr interpolationmode  none
attr title  "# of Sent CAIN hop message, vector"
vector 852  CAIN.ueD2DTx[20].nic.mac  sentPacketToLowerLayer:vector(packetBytes)  ETV
attr interpolationmode  none
attr source  sentPacketToLowerLayer
vector 1901  CAIN.ueD2DTx[21].tcp  tcpRcvQueueBytes  ETV
vector 1888  CAIN.ueD2DTx[21].tcp  "advertised window"  ETV
vector 1887  CAIN.ueD2DTx[21].tcp  "receive window"  ETV
vector 1890  CAIN.ueD2DTx[21].tcp  "sent ack"  ETV
vector 877  CAIN.ueD2DTx[21].nic.pdcpRrc  receivedPacketFromUpperLayer:vector(packetBytes)  ETV
attr interpolationmode  none
attr source  receivedPacketFromUpperLayer
vector 880  CAIN.ueD2DTx[21].nic.pdcpRrc  sentPacketToLowerLayer:vector(packetBytes)  ETV
attr interpolationmode  none
attr source  sentPacketToLowerLayer
vector 881  CAIN.ueD2DTx[21].nic.mac  receivedPacketFromUpperLayer:vector(packetBytes)  ETV
attr interpolationmode  none
attr source  receivedPacketFromUpperLayer
vector 891  CAIN.ueD2DTx[21].nic.mac  CainHopMessageSent:vector  ETV
attr interpolationmode  none
attr title  "# of Sent CAIN hop message, vector"
vector 884  CAIN.ueD2DTx[21].nic.mac  sentPacketToLowerLayer:vector(packetBytes)  ETV
attr interpolationmode  none
attr source  sentPacketToLowerLayer
vector 754  CAIN.ueD2DTx[17].nic.mac  receivedPacketFromLowerLayer:vector(packetBytes)  ETV
attr interpolationmode  none
attr source  receivedPacketFromLowerLayer
vector 756  CAIN.ueD2DTx[17].nic.mac  sentPacketToLowerLayer:vector(packetBytes)  ETV
attr interpolationmode  none
attr source  sentPacketToLowerLayer
vector 1925  CAIN.ueD2DTx[9].tcp  tcpRcvQueueBytes  ETV
vector 1912  CAIN.ueD2DTx[9].tcp  "advertised window"  ETV
vector 1911  CAIN.ueD2DTx[9].tcp  "receive window"  ETV
vector 1914  CAIN.ueD2DTx[9].tcp  "sent ack"  ETV
vector 493  CAIN.ueD2DTx[9].nic.pdcpRrc  receivedPacketFromUpperLayer:vector(packetBytes)  ETV
attr interpolationmode  none
attr source  receivedPacketFromUpperLayer
vector 496  CAIN.ueD2DTx[9].nic.pdcpRrc  sentPacketToLowerLayer:vector(packetBytes)  ETV
attr interpolationmode  none
attr source  sentPacketToLowerLayer
vector 497  CAIN.ueD2DTx[9].nic.mac  receivedPacketFromUpperLayer:vector(packetBytes)  ETV
attr interpolationmode  none
attr source  receivedPacketFromUpperLayer
vector 500  CAIN.ueD2DTx[9].nic.mac  sentPacketToLowerLayer:vector(packetBytes)  ETV
attr interpolationmode  none
attr source  sentPacketToLowerLayer
vector 498  CAIN.ueD2DTx[9].nic.mac  receivedPacketFromLowerLayer:vector(packetBytes)  ETV
attr interpolationmode  none
attr source  receivedPacketFromLowerLayer
vector 1949  CAIN.ueD2DTx[10].tcp  tcpRcvQueueBytes  ETV
vector 1936  CAIN.ueD2DTx[10].tcp  "advertised window"  ETV
vector 1935  CAIN.ueD2DTx[10].tcp  "receive window"  ETV
vector 1938  CAIN.ueD2DTx[10].tcp  "sent ack"  ETV
vector 525  CAIN.ueD2DTx[10].nic.pdcpRrc  receivedPacketFromUpperLayer:vector(packetBytes)  ETV
attr interpolationmode  none
attr source  receivedPacketFromUpperLayer
vector 528  CAIN.ueD2DTx[10].nic.pdcpRrc  sentPacketToLowerLayer:vector(packetBytes)  ETV
attr interpolationmode  none
attr source  sentPacketToLowerLayer
vector 529  CAIN.ueD2DTx[10].nic.mac  receivedPacketFromUpperLayer:vector(packetBytes)  ETV
attr interpolationmode  none
attr source  receivedPacketFromUpperLayer
vector 538  CAIN.ueD2DTx[10].nic.mac  CainMessageSent:vector  ETV
attr interpolationmode  none
attr title  "# of Sent CAIN message, vector"
vector 532  CAIN.ueD2DTx[10].nic.mac  sentPacketToLowerLayer:vector(packetBytes)  ETV
attr interpolationmode  none
attr source  sentPacketToLowerLayer
vector 499  CAIN.ueD2DTx[9].nic.mac  sentPacketToUpperLayer:vector(packetBytes)  ETV
attr interpolationmode  none
attr source  sentPacketToUpperLayer
vector 1973  CAIN.ueD2DTx[17].tcp  tcpRcvQueueBytes  ETV
vector 1960  CAIN.ueD2DTx[17].tcp  "advertised window"  ETV
vector 1959  CAIN.ueD2DTx[17].tcp  "receive window"  ETV
vector 1962  CAIN.ueD2DTx[17].tcp  "sent ack"  ETV
vector 749  CAIN.ueD2DTx[17].nic.pdcpRrc  receivedPacketFromUpperLayer:vector(packetBytes)  ETV
attr interpolationmode  none
attr source  receivedPacketFromUpperLayer
vector 752  CAIN.ueD2DTx[17].nic.pdcpRrc  sentPacketToLowerLayer:vector(packetBytes)  ETV
attr interpolationmode  none
attr source  sentPacketToLowerLayer
vector 753  CAIN.ueD2DTx[17].nic.mac  receivedPacketFromUpperLayer:vector(packetBytes)  ETV
attr interpolationmode  none
attr source  receivedPacketFromUpperLayer
vector 1997  CAIN.ueD2DTx[0].tcp  tcpRcvQueueBytes  ETV
vector 1984  CAIN.ueD2DTx[0].tcp  "advertised window"  ETV
vector 1983  CAIN.ueD2DTx[0].tcp  "receive window"  ETV
vector 1986  CAIN.ueD2DTx[0].tcp  "sent ack"  ETV
vector 205  CAIN.ueD2DTx[0].nic.pdcpRrc  receivedPacketFromUpperLayer:vector(packetBytes)  ETV
attr interpolationmode  none
attr source  receivedPacketFromUpperLayer
vector 208  CAIN.ueD2DTx[0].nic.pdcpRrc  sentPacketToLowerLayer:vector(packetBytes)  ETV
attr interpolationmode  none
attr source  sentPacketToLowerLayer
vector 209  CAIN.ueD2DTx[0].nic.mac  receivedPacketFromUpperLayer:vector(packetBytes)  ETV
attr interpolationmode  none
attr source  receivedPacketFromUpperLayer
vector 219  CAIN.ueD2DTx[0].nic.mac  CainHopMessageSent:vector  ETV
attr interpolationmode  none
attr title  "# of Sent CAIN hop message, vector"
vector 212  CAIN.ueD2DTx[0].nic.mac  sentPacketToLowerLayer:vector(packetBytes)  ETV
attr interpolationmode  none
attr source  sentPacketToLowerLayer
vector 762  CAIN.ueD2DTx[17].nic.mac  CainMessageSent:vector  ETV
attr interpolationmode  none
attr title  "# of Sent CAIN message, vector"
vector 2021  CAIN.ueD2DTx[19].tcp  tcpRcvQueueBytes  ETV
vector 2008  CAIN.ueD2DTx[19].tcp  "advertised window"  ETV
vector 2007  CAIN.ueD2DTx[19].tcp  "receive window"  ETV
vector 2010  CAIN.ueD2DTx[19].tcp  "sent ack"  ETV
vector 813  CAIN.ueD2DTx[19].nic.pdcpRrc  receivedPacketFromUpperLayer:vector(packetBytes)  ETV
attr interpolationmode  none
attr source  receivedPacketFromUpperLayer
vector 816  CAIN.ueD2DTx[19].nic.pdcpRrc  sentPacketToLowerLayer:vector(packetBytes)  ETV
attr interpolationmode  none
attr source  sentPacketToLowerLayer
vector 817  CAIN.ueD2DTx[19].nic.mac  receivedPacketFromUpperLayer:vector(packetBytes)  ETV
attr interpolationmode  none
attr source  receivedPacketFromUpperLayer
vector 2045  CAIN.ueD2DTx[5].tcp  tcpRcvQueueBytes  ETV
vector 2032  CAIN.ueD2DTx[5].tcp  "advertised window"  ETV
vector 2031  CAIN.ueD2DTx[5].tcp  "receive window"  ETV
vector 2034  CAIN.ueD2DTx[5].tcp  "sent ack"  ETV
vector 365  CAIN.ueD2DTx[5].nic.pdcpRrc  receivedPacketFromUpperLayer:vector(packetBytes)  ETV
attr interpolationmode  none
attr source  receivedPacketFromUpperLayer
vector 368  CAIN.ueD2DTx[5].nic.pdcpRrc  sentPacketToLowerLayer:vector(packetBytes)  ETV
attr interpolationmode  none
attr source  sentPacketToLowerLayer
vector 369  CAIN.ueD2DTx[5].nic.mac  receivedPacketFromUpperLayer:vector(packetBytes)  ETV
attr interpolationmode  none
attr source  receivedPacketFromUpperLayer
vector 379  CAIN.ueD2DTx[5].nic.mac  CainHopMessageSent:vector  ETV
attr interpolationmode  none
attr title  "# of Sent CAIN hop message, vector"
vector 372  CAIN.ueD2DTx[5].nic.mac  sentPacketToLowerLayer:vector(packetBytes)  ETV
attr interpolationmode  none
attr source  sentPacketToLowerLayer
vector 820  CAIN.ueD2DTx[19].nic.mac  sentPacketToLowerLayer:vector(packetBytes)  ETV
attr interpolationmode  none
attr source  sentPacketToLowerLayer
vector 2069  CAIN.ueD2DTx[22].tcp  tcpRcvQueueBytes  ETV
vector 2056  CAIN.ueD2DTx[22].tcp  "advertised window"  ETV
vector 2055  CAIN.ueD2DTx[22].tcp  "receive window"  ETV
vector 2058  CAIN.ueD2DTx[22].tcp  "sent ack"  ETV
vector 909  CAIN.ueD2DTx[22].nic.pdcpRrc  receivedPacketFromUpperLayer:vector(packetBytes)  ETV
attr interpolationmode  none
attr source  receivedPacketFromUpperLayer
vector 912  CAIN.ueD2DTx[22].nic.pdcpRrc  sentPacketToLowerLayer:vector(packetBytes)  ETV
attr interpolationmode  none
attr source  sentPacketToLowerLayer
vector 913  CAIN.ueD2DTx[22].nic.mac  receivedPacketFromUpperLayer:vector(packetBytes)  ETV
attr interpolationmode  none
attr source  receivedPacketFromUpperLayer
vector 818  CAIN.ueD2DTx[19].nic.mac  receivedPacketFromLowerLayer:vector(packetBytes)  ETV
attr interpolationmode  none
attr source  receivedPacketFromLowerLayer
vector 819  CAIN.ueD2DTx[19].nic.mac  sentPacketToUpperLayer:vector(packetBytes)  ETV
attr interpolationmode  none
attr source  sentPacketToUpperLayer
vector 915  CAIN.ueD2DTx[22].nic.mac  sentPacketToUpperLayer:vector(packetBytes)  ETV
attr interpolationmode  none
attr source  sentPacketToUpperLayer
vector 411  CAIN.ueD2DTx[6].nic.mac  CainHopMessageSent:vector  ETV
attr interpolationmode  none
attr title  "# of Sent CAIN hop message, vector"
vector 157  CAIN.eNodeB1.nic.mac  measuredItbs:vector  ETV
attr source  measuredItbs
attr title  "TBS index, vector"
attr unit  ""
vector 155  CAIN.eNodeB1.nic.mac  sentPacketToUpperLayer:vector(packetBytes)  ETV
attr interpolationmode  none
attr source  sentPacketToUpperLayer
vector 228  CAIN.ueD2DTx[0].nic.phy  averageCqiDlvect:vector  ETV
attr source  averageCqiDlvect
attr title  "Average Cqi reported in DL, vector"
attr unit  cqi
vector 210  CAIN.ueD2DTx[0].nic.mac  receivedPacketFromLowerLayer:vector(packetBytes)  ETV
attr interpolationmode  none
attr source  receivedPacketFromLowerLayer
vector 211  CAIN.ueD2DTx[0].nic.mac  sentPacketToUpperLayer:vector(packetBytes)  ETV
attr interpolationmode  none
attr source  sentPacketToUpperLayer
vector 206  CAIN.ueD2DTx[0].nic.pdcpRrc  receivedPacketFromLowerLayer:vector(packetBytes)  ETV
attr interpolationmode  none
attr source  receivedPacketFromLowerLayer
vector 207  CAIN.ueD2DTx[0].nic.pdcpRrc  sentPacketToUpperLayer:vector(packetBytes)  ETV
attr interpolationmode  none
attr source  sentPacketToUpperLayer
vector 786  CAIN.ueD2DTx[18].nic.mac  receivedPacketFromLowerLayer:vector(packetBytes)  ETV
attr interpolationmode  none
attr source  receivedPacketFromLowerLayer
vector 787  CAIN.ueD2DTx[18].nic.mac  sentPacketToUpperLayer:vector(packetBytes)  ETV
attr interpolationmode  none
attr source  sentPacketToUpperLayer
vector 173  CAIN.eNodeB1.nic.phy  averageCqiUlvect:vector  ETV
attr source  averageCqiUlvect
attr title  "Average Cqi reported in UL, vector"
attr unit  cqi
vector 150  CAIN.eNodeB1.nic.pdcpRrc  receivedPacketFromLowerLayer:vector(packetBytes)  ETV
attr interpolationmode  none
attr source  receivedPacketFromLowerLayer
vector 151  CAIN.eNodeB1.nic.pdcpRrc  sentPacketToUpperLayer:vector(packetBytes)  ETV
attr interpolationmode  none
attr source  sentPacketToUpperLayer
vector 594  CAIN.ueD2DTx[12].nic.mac  receivedPacketFromLowerLayer:vector(packetBytes)  ETV
attr interpolationmode  none
attr source  receivedPacketFromLowerLayer
vector 595  CAIN.ueD2DTx[12].nic.mac  sentPacketToUpperLayer:vector(packetBytes)  ETV
attr interpolationmode  none
attr source  sentPacketToUpperLayer
vector 275  CAIN.ueD2DTx[2].nic.mac  sentPacketToUpperLayer:vector(packetBytes)  ETV
attr interpolationmode  none
attr source  sentPacketToUpperLayer
vector 339  CAIN.ueD2DTx[4].nic.mac  sentPacketToUpperLayer:vector(packetBytes)  ETV
attr interpolationmode  none
attr source  sentPacketToUpperLayer
vector 539  CAIN.ueD2DTx[10].nic.mac  CainHopMessageSent:vector  ETV
attr interpolationmode  none
attr title  "# of Sent CAIN hop message, vector"
vector 243  CAIN.ueD2DTx[1].nic.mac  sentPacketToUpperLayer:vector(packetBytes)  ETV
attr interpolationmode  none
attr source  sentPacketToUpperLayer
1268	175	0.0000001228	0
1379	260	0.0000006304	65535
1380	260	0.0000006304	8940
1381	260	0.0000006304	0.3725
1377	260	0.0000006304	3
1384	260	0.0000006304	1
1396	188	0.0000003096	0
1352	260	0.0000006304	65535
1353	260	0.0000006304	8940
1354	260	0.0000006304	0.3725
1350	260	0.0000006304	3
1357	260	0.0000006304	1
1369	188	0.0000003096	0
1070	260	0.0000006304	65535
1071	260	0.0000006304	8940
1072	260	0.0000006304	0.3725
1068	260	0.0000006304	3
1068	327	0.0000008564	1
1069	327	0.0000008564	2.26e-07
1074	4076	0.0570000972	2000
1074	4113	0.0570003844	2001
1074	4113	0.0570003844	2002
1074	4113	0.0570003844	2003
1074	4113	0.0570003844	2004
1074	4113	0.0570003844	2005
1074	4113	0.0570003844	2006
1074	4113	0.0570003844	2007
1074	20208	0.2570015836	2008
1074	20208	0.2570015836	2009
1074	20208	0.2570015836	2010
1074	20208	0.2570015836	2011
1074	20208	0.2570015836	2012
1074	20208	0.2570015836	2013
1074	20208	0.2570015836	2014
1074	20208	0.2570015836	2015
1074	20208	0.2570015836	2016
1074	20208	0.2570015836	2017
1074	20208	0.2570015836	2018
1074	20208	0.2570015836	2019
1074	20208	0.2570015836	2020
1074	20208	0.2570015836	2021
1074	20208	0.2570015836	2022
1074	20208	0.2570015836	2023
1074	20208	0.2570015836	2024
1074	20208	0.2570015836	2025
1074	20208	0.2570015836	2026
1074	20208	0.2570015836	2027
1074	20208	0.2570015836	2028
1074	20208	0.2570015836	2029
1074	20208	0.2570015836	2030
1074	20208	0.2570015836	2031
1074	20208	0.2570015836	2032
1074	20208	0.2570015836	2033
1074	20208	0.2570015836	2034
1074	20208	0.2570015836	2035
1074	20208	0.2570015836	2036
1074	20208	0.2570015836	2037
1074	20208	0.2570015836	2038
1074	20208	0.2570015836	2039
1074	20208	0.2570015836	2040
1074	20208	0.2570015836	2041
1074	20208	0.2570015836	2042
1074	20208	0.2570015836	2043
1074	20208	0.2570015836	2044
1074	20208	0.2570015836	2045
1074	20208	0.2570015836	2046
1074	20208	0.2570015836	2047
1074	20208	0.2570015836	2048
1074	20208	0.2570015836	2049
1074	20208	0.2570015836	2050
1074	20208	0.2570015836	2051
1074	20208	0.2570015836	2052
1074	20208	0.2570015836	2053
1074	20208	0.2570015836	2054
1074	20208	0.2570015836	2055
1074	20208	0.2570015836	2056
1074	20208	0.2570015836	2057
1074	20208	0.2570015836	2058
1074	20208	0.2570015836	2059
1074	20208	0.2570015836	2060
1074	20208	0.2570015836	2061
1074	20208	0.2570015836	2062
1074	20208	0.2570015836	2063
1074	20208	0.2570015836	2064
1074	20208	0.2570015836	2065
1074	20208	0.2570015836	2066
1074	20208	0.2570015836	2067
1074	20208	0.2570015836	2068
1074	20208	0.2570015836	2069
1074	20208	0.2570015836	2070
1074	20208	0.2570015836	2071
1077	232	0.000000552	1
1077	246	0.000000596	2
1076	232	0.000000552	1
1076	246	0.000000596	2
1078	327	0.0000008564	1
1078	333	0.0000009004	2
1087	156	0	0
1046	4076	0.0570000972	65533
1046	20194	0.2570003844	65535
1046	35926	0.4570015836	65535
1050	4076	0.0570000972	2
1050	4079	0.0570000972	2
1050	4121	0.0570003844	14
1050	4122	0.0570003844	0
1050	4123	0.0570003844	0
1050	4124	0.0570003844	0
1050	4125	0.0570003844	0
1050	4126	0.0570003844	0
1050	4127	0.0570003844	0
1050	20194	0.2570003844	0
1050	20273	0.2570015836	128
1050	20274	0.2570015836	0
1050	20275	0.2570015836	0
1050	20276	0.2570015836	0
1050	20277	0.2570015836	0
1050	20278	0.2570015836	0
1050	20279	0.2570015836	0
1050	20280	0.2570015836	0
1050	20281	0.2570015836	0
1050	20282	0.2570015836	0
1050	20283	0.2570015836	0
1050	20284	0.2570015836	0
1050	20285	0.2570015836	0
1050	20286	0.2570015836	0
1050	20287	0.2570015836	0
1050	20288	0.2570015836	0
1050	20289	0.2570015836	0
1050	20290	0.2570015836	0
1050	20291	0.2570015836	0
1050	20292	0.2570015836	0
1050	20293	0.2570015836	0
1050	20294	0.2570015836	0
1050	20295	0.2570015836	0
1050	20296	0.2570015836	0
1050	20297	0.2570015836	0
1050	20298	0.2570015836	0
1050	20299	0.2570015836	0
1050	20300	0.2570015836	0
1050	20301	0.2570015836	0
1050	20302	0.2570015836	0
1050	20303	0.2570015836	0
1050	20304	0.2570015836	0
1050	20305	0.2570015836	0
1050	20306	0.2570015836	0
1050	20307	0.2570015836	0
1050	20308	0.2570015836	0
1050	20309	0.2570015836	0
1050	20310	0.2570015836	0
1050	20311	0.2570015836	0
1050	20312	0.2570015836	0
1050	20313	0.2570015836	0
1050	20314	0.2570015836	0
1050	20315	0.2570015836	0
1050	20316	0.2570015836	0
1050	20317	0.2570015836	0
1050	20318	0.2570015836	0
1050	20319	0.2570015836	0
1050	20320	0.2570015836	0
1050	20321	0.2570015836	0
1050	20322	0.2570015836	0
1050	20323	0.2570015836	0
1050	20324	0.2570015836	0
1050	20325	0.2570015836	0
1050	20326	0.2570015836	0
1050	20327	0.2570015836	0
1050	20328	0.2570015836	0
1050	20329	0.2570015836	0
1050	20330	0.2570015836	0
1050	20331	0.2570015836	0
1050	20332	0.2570015836	0
1050	20333	0.2570015836	0
1050	20334	0.2570015836	0
1050	20335	0.2570015836	0
1050	20336	0.2570015836	0
1050	35926	0.4570015836	0
1055	4076	0.0570000972	0
1055	20194	0.2570003844	0
1055	35926	0.4570015836	0
1056	4076	0.0570000972	0
1056	20194	0.2570003844	0
1056	35926	0.4570015836	0
1057	4076	0.0570000972	0
1057	20194	0.2570003844	0
1057	35926	0.4570015836	0
1058	4076	0.0570000972	0
1058	20194	0.2570003844	0
1058	35926	0.4570015836	0
1059	4076	0.0570000972	0
1059	20194	0.2570003844	0
1059	35926	0.4570015836	0
1060	4076	0.0570000972	0
1060	20194	0.2570003844	0
1060	35926	0.4570015836	0
1061	4076	0.0570000972	0
1061	20194	0.2570003844	0
1061	35926	0.4570015836	0
1062	4076	0.0570000972	16
1062	20194	0.2570003844	16
1062	35926	0.4570015836	16
1064	188	0.0000003096	65535
1066	4079	0.0570000972	9.72e-08
1066	4121	0.0570003844	1.932e-07
1066	4121	0.0570003844	1.932e-07
1066	4121	0.0570003844	1.932e-07
1066	4121	0.0570003844	1.932e-07
1066	4121	0.0570003844	1.932e-07
1066	4121	0.0570003844	1.932e-07
1066	4121	0.0570003844	1.932e-07
1066	20273	0.2570015836	1.1052e-06
1066	20273	0.2570015836	1.1052e-06
1066	20273	0.2570015836	1.1052e-06
1066	20273	0.2570015836	1.1052e-06
1066	20273	0.2570015836	1.1052e-06
1066	20273	0.2570015836	1.1052e-06
1066	20273	0.2570015836	1.1052e-06
1066	20273	0.2570015836	1.1052e-06
1066	20273	0.2570015836	1.1052e-06
1066	20273	0.2570015836	1.1052e-06
1066	20273	0.2570015836	1.1052e-06
1066	20273	0.2570015836	1.1052e-06
1066	20273	0.2570015836	1.1052e-06
1066	20273	0.2570015836	1.1052e-06
1066	20273	0.2570015836	1.1052e-06
1066	20273	0.2570015836	1.1052e-06
1066	20273	0.2570015836	1.1052e-06
1066	20273	0.2570015836	1.1052e-06
1066	20273	0.2570015836	1.1052e-06
1066	20273	0.2570015836	1.1052e-06
1066	20273	0.2570015836	1.1052e-06
1066	20273	0.2570015836	1.1052e-06
1066	20273	0.2570015836	1.1052e-06
1066	20273	0.2570015836	1.1052e-06
1066	20273	0.2570015836	1.1052e-06
1066	20273	0.2570015836	1.1052e-06
1066	20273	0.2570015836	1.1052e-06
1066	20273	0.2570015836	1.1052e-06
1066	20273	0.2570015836	1.1052e-06
1066	20273	0.2570015836	1.1052e-06
1066	20273	0.2570015836	1.1052e-06
1066	20273	0.2570015836	1.1052e-06
1066	20273	0.2570015836	1.1052e-06
1066	20273	0.2570015836	1.1052e-06
1066	20273	0.2570015836	1.1052e-06
1066	20273	0.2570015836	1.1052e-06
1066	20273	0.2570015836	1.1052e-06
1066	20273	0.2570015836	1.1052e-06
1066	20273	0.2570015836	1.1052e-06
1066	20273	0.2570015836	1.1052e-06
1066	20273	0.2570015836	1.1052e-06
1066	20273	0.2570015836	1.1052e-06
1066	20273	0.2570015836	1.1052e-06
1066	20273	0.2570015836	1.1052e-06
1066	20273	0.2570015836	1.1052e-06
1066	20273	0.2570015836	1.1052e-06
1066	20273	0.2570015836	1.1052e-06
1066	20273	0.2570015836	1.1052e-06
1066	20273	0.2570015836	1.1052e-06
1066	20273	0.2570015836	1.1052e-06
1066	20273	0.2570015836	1.1052e-06
1066	20273	0.2570015836	1.1052e-06
1066	20273	0.2570015836	1.1052e-06
1066	20273	0.2570015836	1.1052e-06
1066	20273	0.2570015836	1.1052e-06
1066	20273	0.2570015836	1.1052e-06
1066	20273	0.2570015836	1.1052e-06
1066	20273	0.2570015836	1.1052e-06
1066	20273	0.2570015836	1.1052e-06
1066	20273	0.2570015836	1.1052e-06
1066	20273	0.2570015836	1.1052e-06
1066	20273	0.2570015836	1.1052e-06
1066	20273	0.2570015836	1.1052e-06
1066	20273	0.2570015836	1.1052e-06
1067	156	0	0
1298	203	0.000000458	65535
1299	203	0.000000458	8940
1300	203	0.000000458	0.3725
1296	203	0.000000458	3
1303	203	0.000000458	1
1311	729	0.0070001912	0
1311	16070	0.2070004784	0
1311	32079	0.4070016776	0
1312	729	0.0070001912	0
1312	16070	0.2070004784	0
1312	32079	0.4070016776	0
1313	729	0.0070001912	0
1313	16070	0.2070004784	0
1313	32079	0.4070016776	0
1315	175	0.0000001228	0
1271	203	0.000000458	65535
1272	203	0.000000458	8940
1273	203	0.000000458	0.3725
1269	203	0.000000458	3
1276	203	0.000000458	1
1284	729	0.0070001912	0
1284	16070	0.2070004784	0
1284	32079	0.4070016776	0
1285	729	0.0070001912	0
1285	16070	0.2070004784	0
1285	32079	0.4070016776	0
1286	729	0.0070001912	0
1286	16070	0.2070004784	0
1286	32079	0.4070016776	0
1288	175	0.0000001228	0
1325	203	0.000000458	65535
1325	93611	1.2070004784	65535
1326	203	0.000000458	8940
1326	93611	1.2070004784	8940
1327	203	0.000000458	0.3725
1327	93611	1.2070004784	23.84
1323	203	0.000000458	3
1323	280	0.0000006744	1
1323	729	0.0070001912	1
1323	16070	0.2070004784	1
1323	32079	0.4070016776	1
1324	280	0.0000006744	2.164e-07
1324	729	0.0070001912	1.912e-07
1324	16070	0.2070004784	0.2000002872
1324	32079	0.4070016776	0.2000011992
1328	674	0.007	2000
1328	729	0.0070001912	2001
1328	729	0.0070001912	2002
1328	729	0.0070001912	2003
1328	729	0.0070001912	2004
1328	729	0.0070001912	2005
1328	729	0.0070001912	2006
1328	729	0.0070001912	2007
1328	16070	0.2070004784	2008
1328	16070	0.2070004784	2009
1328	16070	0.2070004784	2010
1328	16070	0.2070004784	2011
1328	16070	0.2070004784	2012
1328	16070	0.2070004784	2013
1328	16070	0.2070004784	2014
1328	16070	0.2070004784	2015
1328	16070	0.2070004784	2016
1328	16070	0.2070004784	2017
1328	16070	0.2070004784	2018
1328	16070	0.2070004784	2019
1328	16070	0.2070004784	2020
1328	16070	0.2070004784	2021
1328	16070	0.2070004784	2022
1328	16070	0.2070004784	2023
1328	16070	0.2070004784	2024
1328	16070	0.2070004784	2025
1328	16070	0.2070004784	2026
1328	16070	0.2070004784	2027
1328	16070	0.2070004784	2028
1328	16070	0.2070004784	2029
1328	16070	0.2070004784	2030
1328	16070	0.2070004784	2031
1328	16070	0.2070004784	2032
1328	16070	0.2070004784	2033
1328	16070	0.2070004784	2034
1328	16070	0.2070004784	2035
1328	16070	0.2070004784	2036
1328	16070	0.2070004784	2037
1328	16070	0.2070004784	2038
1328	16070	0.2070004784	2039
1328	16070	0.2070004784	2040
1328	16070	0.2070004784	2041
1328	16070	0.2070004784	2042
1328	16070	0.2070004784	2043
1328	16070	0.2070004784	2044
1328	16070	0.2070004784	2045
1328	16070	0.2070004784	2046
1328	16070	0.2070004784	2047
1328	16070	0.2070004784	2048
1328	16070	0.2070004784	2049
1328	16070	0.2070004784	2050
1328	16070	0.2070004784	2051
1328	16070	0.2070004784	2052
1328	16070	0.2070004784	2053
1328	16070	0.2070004784	2054
1328	16070	0.2070004784	2055
1328	16070	0.2070004784	2056
1328	16070	0.2070004784	2057
1328	16070	0.2070004784	2058
1328	16070	0.2070004784	2059
1328	16070	0.2070004784	2060
1328	16070	0.2070004784	2061
1328	16070	0.2070004784	2062
1328	16070	0.2070004784	2063
1328	16070	0.2070004784	2064
1328	16070	0.2070004784	2065
1328	16070	0.2070004784	2066
1328	16070	0.2070004784	2067
1328	16070	0.2070004784	2068
1328	16070	0.2070004784	2069
1328	16070	0.2070004784	2070
1328	16070	0.2070004784	2071
1332	298	0.0000007624	1
1332	312	0.0000008064	2
1331	298	0.0000007624	1
1331	312	0.0000008064	2
1333	280	0.0000006744	1
1333	290	0.0000007184	2
1334	674	0.007	2
1334	729	0.0070001912	0
1334	729	0.0070001912	2
1334	729	0.0070001912	4
1334	729	0.0070001912	6
1334	729	0.0070001912	8
1334	729	0.0070001912	10
1334	729	0.0070001912	12
1334	729	0.0070001912	14
1334	16070	0.2070004784	12
1334	16070	0.2070004784	10
1334	16070	0.2070004784	8
1334	16070	0.2070004784	6
1334	16070	0.2070004784	4
1334	16070	0.2070004784	2
1334	16070	0.2070004784	0
1334	16070	0.2070004784	2
1334	16070	0.2070004784	4
1334	16070	0.2070004784	6
1334	16070	0.2070004784	8
1334	16070	0.2070004784	10
1334	16070	0.2070004784	12
1334	16070	0.2070004784	14
1334	16070	0.2070004784	16
1334	16070	0.2070004784	18
1334	16070	0.2070004784	20
1334	16070	0.2070004784	22
1334	16070	0.2070004784	24
1334	16070	0.2070004784	26
1334	16070	0.2070004784	28
1334	16070	0.2070004784	30
1334	16070	0.2070004784	32
1334	16070	0.2070004784	34
1334	16070	0.2070004784	36
1334	16070	0.2070004784	38
1334	16070	0.2070004784	40
1334	16070	0.2070004784	42
1334	16070	0.2070004784	44
1334	16070	0.2070004784	46
1334	16070	0.2070004784	48
1334	16070	0.2070004784	50
1334	16070	0.2070004784	52
1334	16070	0.2070004784	54
1334	16070	0.2070004784	56
1334	16070	0.2070004784	58
1334	16070	0.2070004784	60
1334	16070	0.2070004784	62
1334	16070	0.2070004784	64
1334	16070	0.2070004784	66
1334	16070	0.2070004784	68
1334	16070	0.2070004784	70
1334	16070	0.2070004784	72
1334	16070	0.2070004784	74
1334	16070	0.2070004784	76
1334	16070	0.2070004784	78
1334	16070	0.2070004784	80
1334	16070	0.2070004784	82
1334	16070	0.2070004784	84
1334	16070	0.2070004784	86
1334	16070	0.2070004784	88
1334	16070	0.2070004784	90
1334	16070	0.2070004784	92
1334	16070	0.2070004784	94
1334	16070	0.2070004784	96
1334	16070	0.2070004784	98
1334	16070	0.2070004784	100
1334	16070	0.2070004784	102
1334	16070	0.2070004784	104
1334	16070	0.2070004784	106
1334	16070	0.2070004784	108
1334	16070	0.2070004784	110
1334	16070	0.2070004784	112
1334	16070	0.2070004784	114
1334	16070	0.2070004784	116
1334	16070	0.2070004784	118
1334	16070	0.2070004784	120
1334	16070	0.2070004784	122
1334	16070	0.2070004784	124
1334	16070	0.2070004784	126
1334	16070	0.2070004784	128
1334	32079	0.4070016776	126
1334	32079	0.4070016776	124
1334	32079	0.4070016776	122
1334	32079	0.4070016776	120
1334	32079	0.4070016776	118
1334	32079	0.4070016776	116
1334	32079	0.4070016776	114
1334	32079	0.4070016776	112
1334	32079	0.4070016776	110
1334	32079	0.4070016776	108
1334	32079	0.4070016776	106
1334	32079	0.4070016776	104
1334	32079	0.4070016776	102
1334	32079	0.4070016776	100
1334	32079	0.4070016776	98
1334	32079	0.4070016776	96
1334	32079	0.4070016776	94
1334	32079	0.4070016776	92
1334	32079	0.4070016776	90
1334	32079	0.4070016776	88
1334	32079	0.4070016776	86
1334	32079	0.4070016776	84
1334	32079	0.4070016776	82
1334	32079	0.4070016776	80
1334	32079	0.4070016776	78
1334	32079	0.4070016776	76
1334	32079	0.4070016776	74
1334	32079	0.4070016776	72
1334	32079	0.4070016776	70
1334	32079	0.4070016776	68
1334	32079	0.4070016776	66
1334	32079	0.4070016776	64
1334	32079	0.4070016776	62
1334	32079	0.4070016776	60
1334	32079	0.4070016776	58
1334	32079	0.4070016776	56
1334	32079	0.4070016776	54
1334	32079	0.4070016776	52
1334	32079	0.4070016776	50
1334	32079	0.4070016776	48
1334	32079	0.4070016776	46
1334	32079	0.4070016776	44
1334	32079	0.4070016776	42
1334	32079	0.4070016776	40
1334	32079	0.4070016776	38
1334	32079	0.4070016776	36
1334	32079	0.4070016776	34
1334	32079	0.4070016776	32
1334	32079	0.4070016776	30
1334	32079	0.4070016776	28
1334	32079	0.4070016776	26
1334	32079	0.4070016776	24
1334	32079	0.4070016776	22
1334	32079	0.4070016776	20
1334	32079	0.4070016776	18
1334	32079	0.4070016776	16
1334	32079	0.4070016776	14
1334	32079	0.4070016776	12
1334	32079	0.4070016776	10
1334	32079	0.4070016776	8
1334	32079	0.4070016776	6
1334	32079	0.4070016776	4
1334	32079	0.4070016776	2
1334	32079	0.4070016776	0
1335	674	0.007	2
1335	729	0.0070001912	0
1335	729	0.0070001912	2
1335	729	0.0070001912	4
1335	729	0.0070001912	6
1335	729	0.0070001912	8
1335	729	0.0070001912	10
1335	729	0.0070001912	12
1335	729	0.0070001912	14
1335	16070	0.2070004784	12
1335	16070	0.2070004784	10
1335	16070	0.2070004784	8
1335	16070	0.2070004784	6
1335	16070	0.2070004784	4
1335	16070	0.2070004784	2
1335	16070	0.2070004784	0
1335	16070	0.2070004784	2
1335	16070	0.2070004784	4
1335	16070	0.2070004784	6
1335	16070	0.2070004784	8
1335	16070	0.2070004784	10
1335	16070	0.2070004784	12
1335	16070	0.2070004784	14
1335	16070	0.2070004784	16
1335	16070	0.2070004784	18
1335	16070	0.2070004784	20
1335	16070	0.2070004784	22
1335	16070	0.2070004784	24
1335	16070	0.2070004784	26
1335	16070	0.2070004784	28
1335	16070	0.2070004784	30
1335	16070	0.2070004784	32
1335	16070	0.2070004784	34
1335	16070	0.2070004784	36
1335	16070	0.2070004784	38
1335	16070	0.2070004784	40
1335	16070	0.2070004784	42
1335	16070	0.2070004784	44
1335	16070	0.2070004784	46
1335	16070	0.2070004784	48
1335	16070	0.2070004784	50
1335	16070	0.2070004784	52
1335	16070	0.2070004784	54
1335	16070	0.2070004784	56
1335	16070	0.2070004784	58
1335	16070	0.2070004784	60
1335	16070	0.2070004784	62
1335	16070	0.2070004784	64
1335	16070	0.2070004784	66
1335	16070	0.2070004784	68
1335	16070	0.2070004784	70
1335	16070	0.2070004784	72
1335	16070	0.2070004784	74
1335	16070	0.2070004784	76
1335	16070	0.2070004784	78
1335	16070	0.2070004784	80
1335	16070	0.2070004784	82
1335	16070	0.2070004784	84
1335	16070	0.2070004784	86
1335	16070	0.2070004784	88
1335	16070	0.2070004784	90
1335	16070	0.2070004784	92
1335	16070	0.2070004784	94
1335	16070	0.2070004784	96
1335	16070	0.2070004784	98
1335	16070	0.2070004784	100
1335	16070	0.2070004784	102
1335	16070	0.2070004784	104
1335	16070	0.2070004784	106
1335	16070	0.2070004784	108
1335	16070	0.2070004784	110
1335	16070	0.2070004784	112
1335	16070	0.2070004784	114
1335	16070	0.2070004784	116
1335	16070	0.2070004784	118
1335	16070	0.2070004784	120
1335	16070	0.2070004784	122
1335	16070	0.2070004784	124
1335	16070	0.2070004784	126
1335	16070	0.2070004784	128
1335	32079	0.4070016776	126
1335	32079	0.4070016776	124
1335	32079	0.4070016776	122
1335	32079	0.4070016776	120
1335	32079	0.4070016776	118
1335	32079	0.4070016776	116
1335	32079	0.4070016776	114
1335	32079	0.4070016776	112
1335	32079	0.4070016776	110
1335	32079	0.4070016776	108
1335	32079	0.4070016776	106
1335	32079	0.4070016776	104
1335	32079	0.4070016776	102
1335	32079	0.4070016776	100
1335	32079	0.4070016776	98
1335	32079	0.4070016776	96
1335	32079	0.4070016776	94
1335	32079	0.4070016776	92
1335	32079	0.4070016776	90
1335	32079	0.4070016776	88
1335	32079	0.4070016776	86
1335	32079	0.4070016776	84
1335	32079	0.4070016776	82
[...]
955	92880	1.198	231
955	93302	1.203	232
955	93639	1.208	233
955	94042	1.213	234
955	94420	1.218	235
955	94798	1.223	236
955	95201	1.228	237
955	95604	1.233	238
955	95940	1.238	239
955	96343	1.243	240
955	96721	1.248	241
955	97099	1.253	242
955	97503	1.258	243
955	97906	1.263	244
955	98242	1.268	245
955	98645	1.273	246
955	99023	1.278	247
955	99401	1.283	248
955	99804	1.288	249
955	100207	1.293	250
955	100543	1.298	251
955	100965	1.303	252
955	101343	1.308	253
955	101721	1.313	254
955	102124	1.318	255
955	102527	1.323	256
955	102863	1.328	257
955	103266	1.333	258
955	103644	1.338	259
955	104022	1.343	260
955	104425	1.348	261
955	104828	1.353	262
955	105164	1.358	263
955	105567	1.363	264
955	105945	1.368	265
955	106323	1.373	266
955	106726	1.378	267
955	107129	1.383	268
955	107465	1.388	269
955	107868	1.393	270
955	108246	1.398	271
955	108643	1.403	272
955	109046	1.408	273
955	109449	1.413	274
955	109785	1.418	275
955	110188	1.423	276
955	110566	1.428	277
955	110944	1.433	278
955	111347	1.438	279
955	111750	1.443	280
955	112086	1.448	281
955	112489	1.453	282
955	112867	1.458	283
955	113245	1.463	284
955	113648	1.468	285
955	114051	1.473	286
955	114387	1.478	287
955	114790	1.483	288
955	115168	1.488	289
955	115546	1.493	290
955	115949	1.498	291
955	116371	1.503	292
955	116707	1.508	293
955	117110	1.513	294
955	117488	1.518	295
955	117866	1.523	296
955	118269	1.528	297
955	118672	1.533	298
955	119008	1.538	299
955	119411	1.543	300
955	119789	1.548	301
955	120167	1.553	302
955	120570	1.558	303
955	120973	1.563	304
955	121309	1.568	305
955	121712	1.573	306
955	122090	1.578	307
955	122468	1.583	308
955	122871	1.588	309
955	123274	1.593	310
955	123610	1.598	311
955	124032	1.603	312
955	124410	1.608	313
955	124788	1.613	314
955	125191	1.618	315
955	125594	1.623	316
955	125930	1.628	317
955	126333	1.633	318
955	126711	1.638	319
955	127089	1.643	320
955	127492	1.648	321
955	127895	1.653	322
955	128231	1.658	323
955	128634	1.663	324
955	129012	1.668	325
955	129390	1.673	326
955	129793	1.678	327
955	130196	1.683	328
955	130532	1.688	329
955	130935	1.693	330
955	131313	1.698	331
955	131710	1.703	332
955	132113	1.708	333
955	132516	1.713	334
955	132852	1.718	335
955	133255	1.723	336
955	133633	1.728	337
955	134011	1.733	338
955	134414	1.738	339
955	134817	1.743	340
955	135153	1.748	341
955	135556	1.753	342
955	135934	1.758	343
955	136312	1.763	344
955	136715	1.768	345
955	137118	1.773	346
955	137454	1.778	347
955	137857	1.783	348
955	138235	1.788	349
955	138613	1.793	350
955	139016	1.798	351
955	139438	1.803	352
955	139774	1.808	353
955	140177	1.813	354
955	140555	1.818	355
955	140933	1.823	356
955	141336	1.828	357
955	141739	1.833	358
955	142075	1.838	359
955	142478	1.843	360
955	142856	1.848	361
955	143234	1.853	362
955	143637	1.858	363
955	144040	1.863	364
955	144376	1.868	365
955	144779	1.873	366
955	145157	1.878	367
955	145535	1.883	368
955	145938	1.888	369
955	146341	1.893	370
955	146677	1.898	371
955	147099	1.903	372
955	147477	1.908	373
955	147855	1.913	374
955	148258	1.918	375
955	148661	1.923	376
955	148997	1.928	377
955	149400	1.933	378
955	149778	1.938	379
955	150156	1.943	380
955	150559	1.948	381
955	150962	1.953	382
955	151298	1.958	383
955	151701	1.963	384
955	152079	1.968	385
955	152457	1.973	386
955	152860	1.978	387
955	153263	1.983	388
955	153599	1.988	389
955	154002	1.993	390
955	154380	1.998	391
955	154777	2.003	392
955	155180	2.008	393
955	155583	2.013	394
955	155919	2.018	395
955	156322	2.023	396
955	156700	2.028	397
955	157078	2.033	398
955	157481	2.038	399
955	157884	2.043	400
955	158220	2.048	401
955	158623	2.053	402
955	159001	2.058	403
955	159379	2.063	404
955	159782	2.068	405
955	160185	2.073	406
955	160521	2.078	407
955	160924	2.083	408
955	161302	2.088	409
955	161680	2.093	410
955	162083	2.098	411
955	162505	2.103	412
955	162841	2.108	413
955	163244	2.113	414
955	163622	2.118	415
955	164000	2.123	416
955	164403	2.128	417
955	164806	2.133	418
955	165142	2.138	419
955	165545	2.143	420
955	165923	2.148	421
955	166301	2.153	422
955	166704	2.158	423
955	167107	2.163	424
955	167443	2.168	425
955	167846	2.173	426
955	168224	2.178	427
955	168602	2.183	428
955	169005	2.188	429
955	169408	2.193	430
955	169744	2.198	431
955	170166	2.203	432
955	170544	2.208	433
955	170922	2.213	434
955	171325	2.218	435
955	171728	2.223	436
955	172064	2.228	437
955	172467	2.233	438
955	172845	2.238	439
955	173223	2.243	440
955	173626	2.248	441
955	174029	2.253	442
955	174365	2.258	443
955	174768	2.263	444
955	175146	2.268	445
955	175524	2.273	446
955	175927	2.278	447
955	176330	2.283	448
955	176666	2.288	449
955	177069	2.293	450
955	177447	2.298	451
955	177844	2.303	452
955	178247	2.308	453
955	178650	2.313	454
955	178986	2.318	455
955	179389	2.323	456
955	179767	2.328	457
955	180145	2.333	458
955	180548	2.338	459
955	180951	2.343	460
955	181287	2.348	461
955	181690	2.353	462
955	182068	2.358	463
955	182446	2.363	464
955	182849	2.368	465
955	183252	2.373	466
955	183588	2.378	467
955	183991	2.383	468
955	184369	2.388	469
955	184747	2.393	470
955	185150	2.398	471
955	185572	2.403	472
955	185908	2.408	473
955	186311	2.413	474
955	186689	2.418	475
955	187067	2.423	476
955	187470	2.428	477
955	187873	2.433	478
955	188209	2.438	479
955	188612	2.443	480
955	188990	2.448	481
955	189368	2.453	482
955	189771	2.458	483
955	190174	2.463	484
955	190510	2.468	485
955	190913	2.473	486
955	191291	2.478	487
955	191669	2.483	488
955	192072	2.488	489
955	192475	2.493	490
955	192811	2.498	491
955	193233	2.503	492
955	193611	2.508	493
955	193989	2.513	494
955	194392	2.518	495
955	194795	2.523	496
955	195131	2.528	497
955	195534	2.533	498
955	195912	2.538	499
955	196290	2.543	500
955	196693	2.548	501
955	197096	2.553	502
955	197432	2.558	503
955	197835	2.563	504
955	198213	2.568	505
955	198591	2.573	506
955	198994	2.578	507
955	199397	2.583	508
955	199733	2.588	509
955	200136	2.593	510
955	200514	2.598	511
955	200911	2.603	512
955	201314	2.608	513
955	201717	2.613	514
955	202053	2.618	515
955	202456	2.623	516
955	202834	2.628	517
955	203212	2.633	518
955	203615	2.638	519
955	204018	2.643	520
955	204354	2.648	521
955	204757	2.653	522
955	205135	2.658	523
955	205513	2.663	524
955	205916	2.668	525
955	206319	2.673	526
955	206655	2.678	527
955	207058	2.683	528
955	207436	2.688	529
955	207814	2.693	530
955	208217	2.698	531
955	208639	2.703	532
955	208975	2.708	533
955	209378	2.713	534
955	209756	2.718	535
955	210134	2.723	536
955	210537	2.728	537
955	210940	2.733	538
955	211276	2.738	539
955	211679	2.743	540
955	212057	2.748	541
955	212435	2.753	542
955	212838	2.758	543
955	213241	2.763	544
955	213577	2.768	545
955	213980	2.773	546
955	214358	2.778	547
955	214736	2.783	548
955	215139	2.788	549
955	215542	2.793	550
955	215878	2.798	551
955	216300	2.803	552
955	216678	2.808	553
955	217056	2.813	554
955	217459	2.818	555
955	217862	2.823	556
955	218198	2.828	557
955	218601	2.833	558
955	218979	2.838	559
955	219357	2.843	560
955	219760	2.848	561
955	220163	2.853	562
955	220499	2.858	563
955	220902	2.863	564
955	221280	2.868	565
955	221658	2.873	566
955	222061	2.878	567
955	222464	2.883	568
955	222800	2.888	569
955	223203	2.893	570
955	223581	2.898	571
955	223978	2.903	572
955	224381	2.908	573
955	224784	2.913	574
955	225120	2.918	575
955	225523	2.923	576
955	225901	2.928	577
955	226279	2.933	578
955	226682	2.938	579
955	227085	2.943	580
955	227421	2.948	581
955	227824	2.953	582
955	228202	2.958	583
955	228580	2.963	584
955	228983	2.968	585
955	229386	2.973	586
955	229722	2.978	587
955	230125	2.983	588
955	230503	2.988	589
955	230881	2.993	590
955	231284	2.998	591
955	231706	3.003	592
955	232042	3.008	593
955	232445	3.013	594
955	232830	3.018	595
955	233216	3.023	596
955	233649	3.028	597
955	234094	3.033	598
955	234485	3.038	599
955	234968	3.043	600
955	235406	3.048	601
955	235840	3.053	602
955	236301	3.058	603
955	236755	3.063	604
955	237188	3.068	605
955	237659	3.073	606
955	238073	3.078	607
955	238495	3.083	608
955	238928	3.088	609
955	239386	3.093	610
955	239758	3.098	611
955	240238	3.103	612
955	240696	3.108	613
955	241135	3.113	614
955	241557	3.118	615
955	241981	3.123	616
955	242338	3.128	617
955	242762	3.133	618
955	243161	3.138	619
955	243560	3.143	620
955	243984	3.148	621
955	244408	3.153	622
955	244765	3.158	623
955	245189	3.163	624
955	245588	3.168	625
955	245987	3.173	626
955	246411	3.178	627
955	246836	3.183	628
955	247193	3.188	629
955	247617	3.193	630
955	248016	3.198	631
955	248433	3.203	632
955	248857	3.208	633
955	249281	3.213	634
955	249638	3.218	635
955	250062	3.223	636
955	250461	3.228	637
955	250860	3.233	638
955	251284	3.238	639
955	251708	3.243	640
955	252065	3.248	641
955	252489	3.253	642
955	252888	3.258	643
955	253287	3.263	644
955	253711	3.268	645
955	254135	3.273	646
955	254492	3.278	647
955	254917	3.283	648
955	255316	3.288	649
955	255715	3.293	650
955	256139	3.298	651
955	256581	3.303	652
955	256938	3.308	653
955	257362	3.313	654
955	257761	3.318	655
955	258160	3.323	656
955	258584	3.328	657
955	259008	3.333	658
955	259365	3.338	659
955	259789	3.343	660
955	260188	3.348	661
955	260587	3.353	662
955	261011	3.358	663
955	261435	3.363	664
955	261792	3.368	665
955	262216	3.373	666
955	262615	3.378	667
955	263015	3.383	668
955	263439	3.388	669
955	263863	3.393	670
955	264220	3.398	671
955	264662	3.403	672
955	265061	3.408	673
955	265460	3.413	674
955	265884	3.418	675
955	266308	3.423	676
955	266665	3.428	677
955	267089	3.433	678
955	267488	3.438	679
955	267887	3.443	680
955	268311	3.448	681
955	268735	3.453	682
955	269092	3.458	683
955	269516	3.463	684
955	269915	3.468	685
955	270314	3.473	686
955	270738	3.478	687
955	271163	3.483	688
955	271520	3.488	689
955	271944	3.493	690
955	272343	3.498	691
955	272760	3.503	692
955	273184	3.508	693
955	273608	3.513	694
955	273965	3.518	695
955	274389	3.523	696
955	274788	3.528	697
955	275187	3.533	698
955	275611	3.538	699
955	276035	3.543	700
955	276392	3.548	701
955	276816	3.553	702
955	277215	3.558	703
955	277614	3.563	704
955	278038	3.568	705
955	278462	3.573	706
955	278819	3.578	707
955	279244	3.583	708
955	279643	3.588	709
955	280042	3.593	710
955	280466	3.598	711
955	280908	3.603	712
955	281265	3.608	713
955	281689	3.613	714
955	282088	3.618	715
955	282487	3.623	716
955	282911	3.628	717
955	283335	3.633	718
955	283692	3.638	719
955	284116	3.643	720
955	284515	3.648	721
955	284914	3.653	722
955	285338	3.658	723
955	285762	3.663	724
955	286119	3.668	725
955	286543	3.673	726
955	286942	3.678	727
955	287342	3.683	728
955	287766	3.688	729
955	288190	3.693	730
955	288547	3.698	731
955	288989	3.703	732
955	289388	3.708	733
955	289787	3.713	734
955	290211	3.718	735
955	290635	3.723	736
955	290992	3.728	737
955	291416	3.733	738
955	291815	3.738	739
955	292214	3.743	740
955	292638	3.748	741
955	293062	3.753	742
955	293419	3.758	743
955	293843	3.763	744
955	294242	3.768	745
955	294641	3.773	746
955	295065	3.778	747
955	295490	3.783	748
955	295847	3.788	749
955	296271	3.793	750
955	296670	3.798	751
955	297087	3.803	752
955	297511	3.808	753
955	297935	3.813	754
955	298292	3.818	755
955	298716	3.823	756
955	299115	3.828	757
955	299514	3.833	758
955	299938	3.838	759
955	300362	3.843	760
955	300719	3.848	761
955	301143	3.853	762
955	301542	3.858	763
955	301941	3.863	764
955	302365	3.868	765
955	302789	3.873	766
955	303146	3.878	767
955	303571	3.883	768
955	303970	3.888	769
955	304369	3.893	770
955	304793	3.898	771
955	305235	3.903	772
955	305592	3.908	773
955	306016	3.913	774
955	306415	3.918	775
955	306814	3.923	776
955	307238	3.928	777
955	307662	3.933	778
955	308019	3.938	779
955	308443	3.943	780
955	308842	3.948	781
955	309241	3.953	782
955	309665	3.958	783
955	310089	3.963	784
955	310446	3.968	785
955	310870	3.973	786
955	311269	3.978	787
955	311669	3.983	788
955	312093	3.988	789
955	312517	3.993	790
955	312874	3.998	791
955	313316	4.003	792
955	313715	4.008	793
955	314114	4.013	794
955	314538	4.018	795
955	314962	4.023	796
955	315319	4.028	797
955	315743	4.033	798
955	316142	4.038	799
955	316541	4.043	800
955	316965	4.048	801
955	317389	4.053	802
955	317746	4.058	803
955	318170	4.063	804
955	318569	4.068	805
955	318968	4.073	806
955	319392	4.078	807
955	319817	4.083	808
955	320174	4.088	809
955	320598	4.093	810
955	320997	4.098	811
955	321414	4.103	812
955	321838	4.108	813
955	322262	4.113	814
955	322619	4.118	815
955	323043	4.123	816
955	323442	4.128	817
955	323841	4.133	818
955	324265	4.138	819
955	324689	4.143	820
955	325046	4.148	821
955	325470	4.153	822
955	325869	4.158	823
955	326268	4.163	824
955	326692	4.168	825
955	327116	4.173	826
955	327473	4.178	827
955	327898	4.183	828
955	328297	4.188	829
955	328696	4.193	830
955	329120	4.198	831
955	329562	4.203	832
955	329919	4.208	833
955	330343	4.213	834
955	330742	4.218	835
955	331141	4.223	836
955	331565	4.228	837
955	331989	4.233	838
955	332346	4.238	839
955	332770	4.243	840
955	333169	4.248	841
955	333568	4.253	842
955	333992	4.258	843
955	334416	4.263	844
955	334773	4.268	845
955	335197	4.273	846
955	335596	4.278	847
955	335996	4.283	848
955	336420	4.288	849
955	336844	4.293	850
955	337201	4.298	851
955	337643	4.303	852
955	338042	4.308	853
955	338441	4.313	854
955	338865	4.318	855
955	339289	4.323	856
955	339646	4.328	857
955	340070	4.333	858
955	340469	4.338	859
955	340868	4.343	860
955	341292	4.348	861
955	341716	4.353	862
955	342073	4.358	863
955	342497	4.363	864
955	342896	4.368	865
955	343295	4.373	866
955	343719	4.378	867
955	344144	4.383	868
955	344501	4.388	869
955	344925	4.393	870
955	345324	4.398	871
955	345741	4.403	872
955	346165	4.408	873
955	346589	4.413	874
955	346946	4.418	875
955	347370	4.423	876
955	347769	4.428	877
955	348168	4.433	878
955	348592	4.438	879
955	349017	4.443	880
955	349374	4.448	881
967	0	0	1
973	4153	0.057842512242	44
973	236261	3.057842512242	44
976	4153	0.057842512242	45
976	236261	3.057842512242	45
977	4156	0.057842512242	45
977	4458	0.062	47
977	236264	3.057842512242	45
977	236628	3.062	47
978	4343	0.06	0
978	4411	0.061	0
978	4920	0.067	0
978	4922	0.067	0
978	236480	3.06	0
978	236556	3.061	0
978	237128	3.067	0
978	237130	3.067	0
979	4454	0.062	0
979	236624	3.062	0
980	4195	0.058	0
980	4461	0.062	0
980	236303	3.058	0
980	236633	3.062	0
999	0	0	1
1479	1210	0.016038050947	7504
1479	232715	3.016038050947	7504
1480	1210	0.016038050947	7504
1480	232715	3.016038050947	7504
1482	1210	0.016038050947	0
1482	232715	3.016038050947	0
1493	1210	0.016038050947	0
1493	232715	3.016038050947	0
1503	1500	0.021540784608	7504
1503	233125	3.021540784608	7504
1504	1500	0.021540784608	7504
1504	233125	3.021540784608	7504
1506	1500	0.021540784608	0
1506	233125	3.021540784608	0
1517	1500	0.021540784608	0
1517	233125	3.021540784608	0
1527	1802	0.02660460389	7504
1527	233550	3.02660460389	7504
1528	1802	0.02660460389	7504
1528	233550	3.02660460389	7504
1530	1802	0.02660460389	0
1530	233550	3.02660460389	0
1541	1802	0.02660460389	0
1541	233550	3.02660460389	0
1551	1842	0.027878343419	7504
1551	233615	3.027878343419	7504
1552	1842	0.027878343419	7504
1552	233615	3.027878343419	7504
1554	1842	0.027878343419	0
1554	233615	3.027878343419	0
1565	1842	0.027878343419	0
1565	233615	3.027878343419	0
1575	1889	0.028371024961	7504
1575	233678	3.028371024961	7504
1576	1889	0.028371024961	7504
1576	233678	3.028371024961	7504
1578	1889	0.028371024961	0
1578	233678	3.028371024961	0
1589	1889	0.028371024961	0
1589	233678	3.028371024961	0
1599	2183	0.032649362497	7504
1599	234055	3.032649362497	7504
1600	2183	0.032649362497	7504
1600	234055	3.032649362497	7504
1602	2183	0.032649362497	0
1602	234055	3.032649362497	0
1613	2183	0.032649362497	0
1613	234055	3.032649362497	0
1623	2278	0.034516076937	7504
1623	234188	3.034516076937	7504
1624	2278	0.034516076937	7504
1624	234188	3.034516076937	7504
1626	2278	0.034516076937	0
1626	234188	3.034516076937	0
1637	2278	0.034516076937	0
1637	234188	3.034516076937	0
1647	2403	0.036651693161	7504
1647	234352	3.036651693161	7504
1648	2403	0.036651693161	7504
1648	234352	3.036651693161	7504
1650	2403	0.036651693161	0
1650	234352	3.036651693161	0
1661	2403	0.036651693161	0
1661	234352	3.036651693161	0
1671	2707	0.040940929686	7504
1671	234732	3.040940929686	7504
1672	2707	0.040940929686	7504
1672	234732	3.040940929686	7504
1674	2707	0.040940929686	0
1674	234732	3.040940929686	0
1685	2707	0.040940929686	0
1685	234732	3.040940929686	0
1695	3198	0.047449069971	7504
1695	235343	3.047449069971	7504
1696	3198	0.047449069971	7504
1696	235343	3.047449069971	7504
1698	3198	0.047449069971	0
1698	235343	3.047449069971	0
1709	3198	0.047449069971	0
1709	235343	3.047449069971	0
1719	3284	0.04821039218	7504
1719	235438	3.04821039218	7504
1720	3284	0.04821039218	7504
1720	235438	3.04821039218	7504
1722	3284	0.04821039218	0
1722	235438	3.04821039218	0
1733	3284	0.04821039218	0
1733	235438	3.04821039218	0
1743	3869	0.055890854003	7504
1743	236039	3.055890854003	7504
1744	3869	0.055890854003	7504
1744	236039	3.055890854003	7504
1746	3869	0.055890854003	0
1746	236039	3.055890854003	0
1757	3869	0.055890854003	0
1757	236039	3.055890854003	0
1767	4150	0.057842512242	7504
1767	236258	3.057842512242	7504
1768	4150	0.057842512242	7504
1768	236258	3.057842512242	7504
1770	4150	0.057842512242	0
1770	236258	3.057842512242	0
1781	4150	0.057842512242	0
1781	236258	3.057842512242	0
1791	4158	0.057963030662	7504
1791	236265	3.057963030662	7504
1792	4158	0.057963030662	7504
1792	236265	3.057963030662	7504
1794	4158	0.057963030662	0
1794	236265	3.057963030662	0
1805	4158	0.057963030662	0
1805	236265	3.057963030662	0
1815	4623	0.063891002787	7504
1815	236790	3.063891002787	7504
1816	4623	0.063891002787	7504
1816	236790	3.063891002787	7504
1818	4623	0.063891002787	0
1818	236790	3.063891002787	0
1829	4623	0.063891002787	0
1829	236790	3.063891002787	0
1839	4685	0.064770889489	7504
1839	236860	3.064770889489	7504
1840	4685	0.064770889489	7504
1840	236860	3.064770889489	7504
1842	4685	0.064770889489	0
1842	236860	3.064770889489	0
1853	4685	0.064770889489	0
1853	236860	3.064770889489	0
1863	5266	0.071485376221	7504
1863	237511	3.071485376221	7504
1864	5266	0.071485376221	7504
1864	237511	3.071485376221	7504
1866	5266	0.071485376221	0
1866	237511	3.071485376221	0
1877	5266	0.071485376221	0
1877	237511	3.071485376221	0
1887	5664	0.076776781168	7504
1887	237953	3.076776781168	7504
1888	5664	0.076776781168	7504
1888	237953	3.076776781168	7504
1890	5664	0.076776781168	0
1890	237953	3.076776781168	0
1901	5664	0.076776781168	0
1901	237953	3.076776781168	0
1911	5873	0.079275280847	7504
1911	238202	3.079275280847	7504
1912	5873	0.079275280847	7504
1912	238202	3.079275280847	7504
1914	5873	0.079275280847	0
1914	238202	3.079275280847	0
1925	5873	0.079275280847	0
1925	238202	3.079275280847	0
1935	6130	0.082257983647	7504
1935	238461	3.082257983647	7504
1936	6130	0.082257983647	7504
1936	238461	3.082257983647	7504
1938	6130	0.082257983647	0
1938	238461	3.082257983647	0
1949	6130	0.082257983647	0
1949	238461	3.082257983647	0
1959	6630	0.088577514598	7504
1959	238975	3.088577514598	7504
1960	6630	0.088577514598	7504
1960	238975	3.088577514598	7504
1962	6630	0.088577514598	0
1962	238975	3.088577514598	0
1973	6630	0.088577514598	0
1973	238975	3.088577514598	0
1983	6638	0.088784986169	7504
1983	238982	3.088784986169	7504
1984	6638	0.088784986169	7504
1984	238982	3.088784986169	7504
1986	6638	0.088784986169	0
1986	238982	3.088784986169	0
1997	6638	0.088784986169	0
1997	238982	3.088784986169	0
2007	7248	0.096236986774	7504
2007	239633	3.096236986774	7504
2008	7248	0.096236986774	7504
2008	239633	3.096236986774	7504
2010	7248	0.096236986774	0
2010	239633	3.096236986774	0
2021	7248	0.096236986774	0
2021	239633	3.096236986774	0
2031	7256	0.09658703896	7504
2031	239640	3.09658703896	7504
2032	7256	0.09658703896	7504
2032	239640	3.09658703896	7504
2034	7256	0.09658703896	0
2034	239640	3.09658703896	0
2045	7256	0.09658703896	0
2045	239640	3.09658703896	0
2055	7460	0.09845927062	7504
2055	239860	3.09845927062	7504
2056	7460	0.09845927062	7504
2056	239860	3.09845927062	7504
2058	7460	0.09845927062	0
2058	239860	3.09845927062	0
2069	7460	0.09845927062	0
2069	239860	3.09845927062	0
