file 1253777 1580830674                                         
version 2
run CAIN-314-20200204-12:36:28-11782
attr configname CAIN
attr datetime 20200204-12:36:28
attr dist 240
attr experiment CAIN
attr inifile omnetpp.ini
attr iterationvars "$dist=240, $mob=\"./movements/RWPRPGM-0.0.movements\""
attr iterationvars2 "$dist=240, $mob=\"./movements/RWPRPGM-0.0.movements\", $repetition=34"
attr measurement "$dist=240, $mob=\"./movements/RWPRPGM-0.0.movements\""
attr mob "\"./movements/RWPRPGM-0.0.movements\""
attr network lte.simulations.networks.CAIN
attr processid 11782
attr repetition 34
attr replication #34
attr resultdir results
attr runnumber 314
attr seedset 34
param **.**.amcMode "\"AUTO\""
param **.amcMode "\"D2D\""
param **.cainNetwork true
param **.channelControl.alpha 1.0
param **.channelControl.carrierFrequency 2100e+6Hz
param **.channelControl.pMax 10W
param **.d2dCqi 7
param **.deployer.numRbDl 50
param **.deployer.numRbUl 50
param **.distThresh "${dist=200..260 step 10}"
param **.fbDelay 1
param **.feedbackComputation "xmldoc(\"config_channel.xml\")"
param **.mobility.constraintAreaMaxX 1000m
param **.mobility.constraintAreaMaxY 1000m
param **.mobility.constraintAreaMaxZ 0m
param **.mobility.constraintAreaMinX 0m
param **.mobility.constraintAreaMinY 0m
param **.mobility.constraintAreaMinZ 0m
param **.nic.phy.channelModel "xmldoc(\"config_channel.xml\")"
param **.numBands 50
param **.pwrThresh -10
param **.qtdThresh 3
param **.rbAllocationType "\"localized\""
param **.routingRecorder.enabled false
param **.tcpApp[*].tClose -1s
param **.ueD2DTx[*].mobility.changeAngleBy "normal(0deg, 30deg)"
param **.ueD2DTx[*].mobility.changeInterval "normal(5s, 0.1s)"
param **.ueD2DTx[*].mobility.nodeId -1
param **.ueD2DTx[*].mobility.speed "normal(2mps, 0.01mps)"
param **.ueD2DTx[*].mobility.traceFile "${mob=\"./movements/RWPRPGM-0.0.movements\",\"./movements/RWPRPGM-0.5.movements\"}"
param **.ueD2DTx[*].mobilityType "\"BonnMotionMobility\""
param **.usePreconfiguredTxParams false
param *.eNodeB.d2dCapable false
param *.eNodeB.mobility.initFromDisplayString false
param *.eNodeB.mobility.initialX 300m
param *.eNodeB.mobility.initialY 300m
param *.eNodeB.nic.phy.enableD2DCqiReporting true
param *.eNodeB.txPower 19952.62315mw
param *.numUeCell 0
param *.numUeD2DRx 1
param *.numUeD2DTx 1
param *.ue*.macCellId 1
param *.ue*.masterId 1
param *.ue*.mobility.initFromDisplayString false
param *.ue*[0].macCellId 1
param *.ue*[0].masterId 1
param *.ue*[0].mobility.initFromDisplayString false
param *.ueD2D*.numTcpApps 1
param *.ueD2D*[*].d2dCapable true
param *.ueD2D*[0].d2dCapable false
param *.ueD2D*[0].numTcpApps 1
param *.ueD2DRx[0].mobility.initialX 310m
param *.ueD2DRx[0].mobility.initialY 350m
param *.ueD2DRx[0].tcpApp[*].localPort 1000
param *.ueD2DRx[0].tcpApp[*].typename "\"TCPSinkApp\""
param *.ueD2DTx*.tcpApp[*].connectAddress "\"ueD2DTx[0]\""
param *.ueD2DTx*.tcpApp[*].localAddress "\"ueD2DTx\""
param *.ueD2DTx*.tcpApp[*].localPort 1000
param *.ueD2DTx*.tcpApp[*].sendBytes 1GiB
param *.ueD2DTx*.tcpApp[*].typename "\"TCPSessionApp\""
param *.ueD2DTx*.tcpApp[0].active true
param *.ueD2DTx*.tcpApp[0].connectPort 1000
param *.ueD2DTx*.tcpApp[0].tOpen uniform(0.010s,0.1s)
param *.ueD2DTx*.tcpApp[0].tSend uniform(0.15s,0.5s)
param *.ueD2DTx[0].mobility.initialX 290m
param *.ueD2DTx[0].mobility.initialY 350m
param *.ueD2DTx[0].nic.d2dPeerAddresses "\"ueD2DTx[1]\""
param *.ueD2DTx[0].tcpApp[*].localPort 1000
param *.ueD2DTx[0].tcpApp[*].sendBytes 1GiB
param *.ueD2DTx[0].tcpApp[*].typename "\"TCPSessionApp\""
param *.ueD2DTx[0].tcpApp[0].active true
param *.ueD2DTx[0].tcpApp[0].connectAddress "\"ueD2DRx[0]\""
param *.ueD2DTx[0].tcpApp[0].connectPort 1000
param *.ueD2DTx[0].tcpApp[0].localAddress "\"ueD2DTx[0]\""
param *.ueD2DTx[0].tcpApp[0].tOpen uniform(0.010s,0.1s)
param *.ueD2DTx[0].tcpApp[0].tSend uniform(0.15s,0.5s)
param *.ueD2DTx[1].nic.d2dPeerAddresses "\"ueD2DTx[0]\""

vector 8  CAIN.server.ppp[0].queue  queueLength:vector  ETV
attr interpolationmode  sample-hold
attr title  "queue length, vector"
vector 9  CAIN.server.ppp[0].ppp  txState:vector  ETV
attr interpolationmode  sample-hold
attr title  "tx state, vector"
vector 24  CAIN.router.ppp[0].queue  queueLength:vector  ETV
attr interpolationmode  sample-hold
attr title  "queue length, vector"
vector 25  CAIN.router.ppp[0].ppp  txState:vector  ETV
attr interpolationmode  sample-hold
attr title  "tx state, vector"
vector 35  CAIN.router.ppp[1].queue  queueLength:vector  ETV
attr interpolationmode  sample-hold
attr title  "queue length, vector"
vector 36  CAIN.router.ppp[1].ppp  txState:vector  ETV
attr interpolationmode  sample-hold
attr title  "tx state, vector"
vector 56  CAIN.pgw.ppp[0].queue  queueLength:vector  ETV
attr interpolationmode  sample-hold
attr title  "queue length, vector"
vector 57  CAIN.pgw.ppp[0].ppp  txState:vector  ETV
attr interpolationmode  sample-hold
attr title  "tx state, vector"
vector 67  CAIN.pgw.pppInterface.queue  queueLength:vector  ETV
attr interpolationmode  sample-hold
attr title  "queue length, vector"
vector 68  CAIN.pgw.pppInterface.ppp  txState:vector  ETV
attr interpolationmode  sample-hold
attr title  "tx state, vector"
vector 104  CAIN.eNodeB.pppIf.queue  queueLength:vector  ETV
attr interpolationmode  sample-hold
attr title  "queue length, vector"
vector 105  CAIN.eNodeB.pppIf.ppp  txState:vector  ETV
attr interpolationmode  sample-hold
attr title  "tx state, vector"
vector 138  CAIN.ueD2DTx[0].nic.phy  servingCell:vector  ETV
attr source  servingCell
attr title  "ID of the serving eNodeB for the UE, vector"
attr unit  ""
vector 165  CAIN.ueD2DTx[1].nic.phy  servingCell:vector  ETV
attr source  servingCell
attr title  "ID of the serving eNodeB for the UE, vector"
attr unit  ""
vector 192  CAIN.ueD2DTx[2].nic.phy  servingCell:vector  ETV
attr source  servingCell
attr title  "ID of the serving eNodeB for the UE, vector"
attr unit  ""
vector 219  CAIN.ueD2DTx[3].nic.phy  servingCell:vector  ETV
attr source  servingCell
attr title  "ID of the serving eNodeB for the UE, vector"
attr unit  ""
vector 246  CAIN.ueD2DTx[4].nic.phy  servingCell:vector  ETV
attr source  servingCell
attr title  "ID of the serving eNodeB for the UE, vector"
attr unit  ""
vector 85  CAIN.eNodeB.nic.mac  receivedPacketFromLowerLayer:vector(packetBytes)  ETV
attr interpolationmode  none
attr source  receivedPacketFromLowerLayer
vector 264  CAIN.ueD2DTx[3].tcp  tcpRcvQueueBytes  ETV
vector 251  CAIN.ueD2DTx[3].tcp  "advertised window"  ETV
vector 250  CAIN.ueD2DTx[3].tcp  "receive window"  ETV
vector 253  CAIN.ueD2DTx[3].tcp  "sent ack"  ETV
vector 198  CAIN.ueD2DTx[3].nic.pdcpRrc  receivedPacketFromUpperLayer:vector(packetBytes)  ETV
attr interpolationmode  none
attr source  receivedPacketFromUpperLayer
vector 201  CAIN.ueD2DTx[3].nic.pdcpRrc  sentPacketToLowerLayer:vector(packetBytes)  ETV
attr interpolationmode  none
attr source  sentPacketToLowerLayer
vector 202  CAIN.ueD2DTx[3].nic.mac  receivedPacketFromUpperLayer:vector(packetBytes)  ETV
attr interpolationmode  none
attr source  receivedPacketFromUpperLayer
vector 205  CAIN.ueD2DTx[3].nic.mac  sentPacketToLowerLayer:vector(packetBytes)  ETV
attr interpolationmode  none
attr source  sentPacketToLowerLayer
vector 96  CAIN.eNodeB.nic.mac  racpkt:vector  ETV
attr interpolationmode  none
attr title  "eNB received racpkt message, vector"
vector 97  CAIN.eNodeB.nic.mac  racDistanceSignal:vector  ETV
attr interpolationmode  none
attr title  "Rac distance to enb, vector"
vector 87  CAIN.eNodeB.nic.mac  sentPacketToLowerLayer:vector(packetBytes)  ETV
attr interpolationmode  none
attr source  sentPacketToLowerLayer
vector 203  CAIN.ueD2DTx[3].nic.mac  receivedPacketFromLowerLayer:vector(packetBytes)  ETV
attr interpolationmode  none
attr source  receivedPacketFromLowerLayer
vector 214  CAIN.ueD2DTx[3].nic.mac  racpkt:vector  ETV
attr interpolationmode  none
attr title  "eNB received racpkt message, vector"
vector 215  CAIN.ueD2DTx[3].nic.mac  racDistanceSignal:vector  ETV
attr interpolationmode  none
attr title  "Rac distance to enb, vector"
vector 204  CAIN.ueD2DTx[3].nic.mac  sentPacketToUpperLayer:vector(packetBytes)  ETV
attr interpolationmode  none
attr source  sentPacketToUpperLayer
vector 99  CAIN.eNodeB.nic.phy  averageCqiUlvect:vector  ETV
attr source  averageCqiUlvect
attr title  "Average Cqi reported in UL, vector"
attr unit  cqi
vector 86  CAIN.eNodeB.nic.mac  sentPacketToUpperLayer:vector(packetBytes)  ETV
attr interpolationmode  none
attr source  sentPacketToUpperLayer
vector 88  CAIN.eNodeB.nic.mac  measuredItbs:vector  ETV
attr source  measuredItbs
attr title  "TBS index, vector"
attr unit  ""
vector 81  CAIN.eNodeB.nic.pdcpRrc  receivedPacketFromLowerLayer:vector(packetBytes)  ETV
attr interpolationmode  none
attr source  receivedPacketFromLowerLayer
vector 82  CAIN.eNodeB.nic.pdcpRrc  sentPacketToUpperLayer:vector(packetBytes)  ETV
attr interpolationmode  none
attr source  sentPacketToUpperLayer
vector 80  CAIN.eNodeB.nic.pdcpRrc  receivedPacketFromUpperLayer:vector(packetBytes)  ETV
attr interpolationmode  none
attr source  receivedPacketFromUpperLayer
vector 83  CAIN.eNodeB.nic.pdcpRrc  sentPacketToLowerLayer:vector(packetBytes)  ETV
attr interpolationmode  none
attr source  sentPacketToLowerLayer
vector 84  CAIN.eNodeB.nic.mac  receivedPacketFromUpperLayer:vector(packetBytes)  ETV
attr interpolationmode  none
attr source  receivedPacketFromUpperLayer
vector 135  CAIN.ueD2DTx[0].nic.phy  averageCqiDlvect:vector  ETV
attr source  averageCqiDlvect
attr title  "Average Cqi reported in DL, vector"
attr unit  cqi
vector 122  CAIN.ueD2DTx[0].nic.mac  receivedPacketFromLowerLayer:vector(packetBytes)  ETV
attr interpolationmode  none
attr source  receivedPacketFromLowerLayer
vector 124  CAIN.ueD2DTx[0].nic.mac  sentPacketToLowerLayer:vector(packetBytes)  ETV
attr interpolationmode  none
attr source  sentPacketToLowerLayer
vector 123  CAIN.ueD2DTx[0].nic.mac  sentPacketToUpperLayer:vector(packetBytes)  ETV
attr interpolationmode  none
attr source  sentPacketToUpperLayer
vector 118  CAIN.ueD2DTx[0].nic.pdcpRrc  receivedPacketFromLowerLayer:vector(packetBytes)  ETV
attr interpolationmode  none
attr source  receivedPacketFromLowerLayer
vector 119  CAIN.ueD2DTx[0].nic.pdcpRrc  sentPacketToUpperLayer:vector(packetBytes)  ETV
attr interpolationmode  none
attr source  sentPacketToUpperLayer
vector 288  CAIN.ueD2DTx[0].tcp  tcpRcvQueueBytes  ETV
vector 275  CAIN.ueD2DTx[0].tcp  "advertised window"  ETV
vector 274  CAIN.ueD2DTx[0].tcp  "receive window"  ETV
vector 277  CAIN.ueD2DTx[0].tcp  "sent ack"  ETV
vector 117  CAIN.ueD2DTx[0].nic.pdcpRrc  receivedPacketFromUpperLayer:vector(packetBytes)  ETV
attr interpolationmode  none
attr source  receivedPacketFromUpperLayer
vector 120  CAIN.ueD2DTx[0].nic.pdcpRrc  sentPacketToLowerLayer:vector(packetBytes)  ETV
attr interpolationmode  none
attr source  sentPacketToLowerLayer
vector 121  CAIN.ueD2DTx[0].nic.mac  receivedPacketFromUpperLayer:vector(packetBytes)  ETV
attr interpolationmode  none
attr source  receivedPacketFromUpperLayer
vector 133  CAIN.ueD2DTx[0].nic.mac  racpkt:vector  ETV
attr interpolationmode  none
attr title  "eNB received racpkt message, vector"
vector 134  CAIN.ueD2DTx[0].nic.mac  racDistanceSignal:vector  ETV
attr interpolationmode  none
attr title  "Rac distance to enb, vector"
vector 312  CAIN.ueD2DTx[1].tcp  tcpRcvQueueBytes  ETV
vector 299  CAIN.ueD2DTx[1].tcp  "advertised window"  ETV
vector 298  CAIN.ueD2DTx[1].tcp  "receive window"  ETV
vector 301  CAIN.ueD2DTx[1].tcp  "sent ack"  ETV
vector 144  CAIN.ueD2DTx[1].nic.pdcpRrc  receivedPacketFromUpperLayer:vector(packetBytes)  ETV
attr interpolationmode  none
attr source  receivedPacketFromUpperLayer
vector 147  CAIN.ueD2DTx[1].nic.pdcpRrc  sentPacketToLowerLayer:vector(packetBytes)  ETV
attr interpolationmode  none
attr source  sentPacketToLowerLayer
vector 148  CAIN.ueD2DTx[1].nic.mac  receivedPacketFromUpperLayer:vector(packetBytes)  ETV
attr interpolationmode  none
attr source  receivedPacketFromUpperLayer
vector 151  CAIN.ueD2DTx[1].nic.mac  sentPacketToLowerLayer:vector(packetBytes)  ETV
attr interpolationmode  none
attr source  sentPacketToLowerLayer
vector 149  CAIN.ueD2DTx[1].nic.mac  receivedPacketFromLowerLayer:vector(packetBytes)  ETV
attr interpolationmode  none
attr source  receivedPacketFromLowerLayer
vector 160  CAIN.ueD2DTx[1].nic.mac  racpkt:vector  ETV
attr interpolationmode  none
attr title  "eNB received racpkt message, vector"
vector 161  CAIN.ueD2DTx[1].nic.mac  racDistanceSignal:vector  ETV
attr interpolationmode  none
attr title  "Rac distance to enb, vector"
vector 336  CAIN.ueD2DTx[2].tcp  tcpRcvQueueBytes  ETV
vector 323  CAIN.ueD2DTx[2].tcp  "advertised window"  ETV
vector 322  CAIN.ueD2DTx[2].tcp  "receive window"  ETV
vector 325  CAIN.ueD2DTx[2].tcp  "sent ack"  ETV
vector 171  CAIN.ueD2DTx[2].nic.pdcpRrc  receivedPacketFromUpperLayer:vector(packetBytes)  ETV
attr interpolationmode  none
attr source  receivedPacketFromUpperLayer
vector 174  CAIN.ueD2DTx[2].nic.pdcpRrc  sentPacketToLowerLayer:vector(packetBytes)  ETV
attr interpolationmode  none
attr source  sentPacketToLowerLayer
vector 175  CAIN.ueD2DTx[2].nic.mac  receivedPacketFromUpperLayer:vector(packetBytes)  ETV
attr interpolationmode  none
attr source  receivedPacketFromUpperLayer
vector 178  CAIN.ueD2DTx[2].nic.mac  sentPacketToLowerLayer:vector(packetBytes)  ETV
attr interpolationmode  none
attr source  sentPacketToLowerLayer
vector 360  CAIN.ueD2DTx[4].tcp  tcpRcvQueueBytes  ETV
vector 347  CAIN.ueD2DTx[4].tcp  "advertised window"  ETV
vector 346  CAIN.ueD2DTx[4].tcp  "receive window"  ETV
vector 349  CAIN.ueD2DTx[4].tcp  "sent ack"  ETV
vector 225  CAIN.ueD2DTx[4].nic.pdcpRrc  receivedPacketFromUpperLayer:vector(packetBytes)  ETV
attr interpolationmode  none
attr source  receivedPacketFromUpperLayer
vector 228  CAIN.ueD2DTx[4].nic.pdcpRrc  sentPacketToLowerLayer:vector(packetBytes)  ETV
attr interpolationmode  none
attr source  sentPacketToLowerLayer
vector 229  CAIN.ueD2DTx[4].nic.mac  receivedPacketFromUpperLayer:vector(packetBytes)  ETV
attr interpolationmode  none
attr source  receivedPacketFromUpperLayer
vector 232  CAIN.ueD2DTx[4].nic.mac  sentPacketToLowerLayer:vector(packetBytes)  ETV
attr interpolationmode  none
attr source  sentPacketToLowerLayer
vector 176  CAIN.ueD2DTx[2].nic.mac  receivedPacketFromLowerLayer:vector(packetBytes)  ETV
attr interpolationmode  none
attr source  receivedPacketFromLowerLayer
vector 187  CAIN.ueD2DTx[2].nic.mac  racpkt:vector  ETV
attr interpolationmode  none
attr title  "eNB received racpkt message, vector"
vector 188  CAIN.ueD2DTx[2].nic.mac  racDistanceSignal:vector  ETV
attr interpolationmode  none
attr title  "Rac distance to enb, vector"
vector 230  CAIN.ueD2DTx[4].nic.mac  receivedPacketFromLowerLayer:vector(packetBytes)  ETV
attr interpolationmode  none
attr source  receivedPacketFromLowerLayer
vector 241  CAIN.ueD2DTx[4].nic.mac  racpkt:vector  ETV
attr interpolationmode  none
attr title  "eNB received racpkt message, vector"
vector 242  CAIN.ueD2DTx[4].nic.mac  racDistanceSignal:vector  ETV
attr interpolationmode  none
attr title  "Rac distance to enb, vector"
vector 177  CAIN.ueD2DTx[2].nic.mac  sentPacketToUpperLayer:vector(packetBytes)  ETV
attr interpolationmode  none
attr source  sentPacketToUpperLayer
vector 231  CAIN.ueD2DTx[4].nic.mac  sentPacketToUpperLayer:vector(packetBytes)  ETV
attr interpolationmode  none
attr source  sentPacketToUpperLayer
8	15460 8 0 0 0 0 1 0 0 0 0
9	15468 8 0 0 0 0 1 0 0 0 0
24	15476 9 0 0 0 0 1 0 0 0 0
25	15485 9 0 0 0 0 1 0 0 0 0
35	15494 9 0 0 0 0 1 0 0 0 0
36	15503 9 0 0 0 0 1 0 0 0 0
56	15512 9 0 0 0 0 1 0 0 0 0
57	15521 9 0 0 0 0 1 0 0 0 0
67	15530 9 0 0 0 0 1 0 0 0 0
68	15539 9 0 0 0 0 1 0 0 0 0
80	15548 158 335 152628 0.026 9.09 9 44 44 396 17424
81	15706 158 330 152621 0.026 9.09 9 45 45 405 18225
82	15864 158 330 152621 0.026 9.09 9 44 44 396 17424
83	16022 158 335 152628 0.026 9.09 9 45 45 405 18225
84	16180 316 338 152657 0.026 9.091 18 45 47 828 38106
85	16496 280850 60 167937 0.002 9.999 16302 0 0 0 0
86	297346 307 325 152652 0.026 9.091 18 0 47 423 19881
87	297653 205192 248 167946 0.019 10 11955 0 0 0 0
88	502845 211 325 152652 0.026 9.091 12 26 26 312 8112
96	503056 79890 248 167937 0.019 9.999 3980 1 3980 7922190 21022851530
97	582946 77014 248 167937 0.019 9.999 3980 78 253 789706 157829900
99	659960 73004 299 167926 0.023 9.998 3978 14 15 59667 894963
104	732964 10 0 0 0 0 1 0 0 0 0
105	732974 10 0 0 0 0 1 0 0 0 0
117	732984 83 847 152253 0.072132242306 9.072132242306 3 44 44 132 5808
118	733067 170 410 152745 0.031 9.095 9 45 45 405 18225
119	733237 170 410 152745 0.031 9.095 9 44 44 396 17424
120	733407 83 847 152253 0.072132242306 9.072132242306 3 45 45 135 6075
121	733490 83 850 152256 0.072132242306 9.072132242306 3 45 45 135 6075
122	733573 108336 380 167958 0.028 10 5964 0 0 0 0
123	841909 170 406 152741 0.031 9.095 9 47 47 423 19881
124	842079 73035 406 167906 0.031 9.998 3980 0 0 0 0
133	915114 40185 893 167958 0.075 10 1986 1 1986 1973091 2613030181
134	955299 35334 893 167958 0.075 10 1986 0 0 0 0
135	990633 170 379 152701 0.028 9.092 9 15 15 135 2025
138	990803 10 0 0 0 0 1 1 1 1 1
144	990813 83 907 152328 0.076143779757 9.076143779757 3 44 44 132 5808
147	990896 83 907 152328 0.076143779757 9.076143779757 3 45 45 135 6075
148	990979 83 910 152331 0.076143779757 9.076143779757 3 45 45 135 6075
149	991062 108143 956 167956 0.079 10 5953 0 0 0 0
151	1099205 72840 913 167893 0.077 9.997 3969 0 0 0 0
160	1172045 41278 956 167940 0.079 9.999 1985 1 1985 1971105 2609085985
161	1213323 36430 956 167940 0.079 9.999 1985 0 0 0 0
165	1249753 10 0 0 0 0 1 1 1 1 1
171	1249763 80 983 152408 0.08045624878 9.08045624878 3 44 44 132 5808
174	1249843 80 983 152408 0.08045624878 9.08045624878 3 45 45 135 6075
175	1249923 137 986 152508 0.08045624878 9.085 6 45 47 276 12702
176	1250060 210 1044 152644 0.083 9.09 12 0 0 0 0
177	1250270 54 1078 152504 0.085 9.085 3 0 0 0 0
178	1250324 107 991 152512 0.081 9.085 6 0 0 0 0
187	1250431 54 1044 152470 0.083 9.083 3 1 3 6 14
188	1250485 54 1044 152470 0.083 9.083 3 0 0 0 0
192	1250539 10 0 0 0 0 1 1 1 1 1
198	1250549 83 218 151273 0.017130401146 9.017130401146 3 44 44 132 5808
201	1250632 83 218 151273 0.017130401146 9.017130401146 3 45 45 135 6075
202	1250715 139 221 151368 0.017130401146 9.022 6 45 47 276 12702
203	1250854 209 269 151487 0.02 9.027 12 0 0 0 0
204	1251063 53 283 151364 0.022 9.022 3 0 0 0 0
205	1251116 106 231 151373 0.018 9.022 6 0 0 0 0
214	1251222 50 269 151342 0.02 9.02 3 1 3 6 14
215	1251272 50 269 151342 0.02 9.02 3 0 0 0 0
219	1251322 10 0 0 0 0 1 1 1 1 1
225	1251332 78 1004 152430 0.0818522211 9.0818522211 3 44 44 132 5808
228	1251410 78 1004 152430 0.0818522211 9.0818522211 3 45 45 135 6075
229	1251488 135 1007 152530 0.0818522211 9.086 6 45 47 276 12702
230	1251623 216 1067 152675 0.084 9.091 12 0 0 0 0
231	1251839 54 1100 152526 0.086 9.086 3 0 0 0 0
232	1251893 108 1014 152534 0.082 9.086 6 0 0 0 0
241	1252001 54 1067 152493 0.084 9.084 3 1 3 6 14
242	1252055 54 1067 152493 0.084 9.084 3 0 0 0 0
246	1252109 10 0 0 0 0 1 1 1 1 1
250	1252119 89 215 151270 0.017130401146 9.017130401146 3 7504 7504 22512 168930048
251	1252208 89 215 151270 0.017130401146 9.017130401146 3 7504 7504 22512 168930048
253	1252297 80 215 151270 0.017130401146 9.017130401146 3 0 0 0 0
264	1252377 80 215 151270 0.017130401146 9.017130401146 3 0 0 0 0
274	1252457 89 844 152250 0.072132242306 9.072132242306 3 7504 7504 22512 168930048
275	1252546 89 844 152250 0.072132242306 9.072132242306 3 7504 7504 22512 168930048
277	1252635 80 844 152250 0.072132242306 9.072132242306 3 0 0 0 0
288	1252715 80 844 152250 0.072132242306 9.072132242306 3 0 0 0 0
298	1252795 89 904 152325 0.076143779757 9.076143779757 3 7504 7504 22512 168930048
299	1252884 89 904 152325 0.076143779757 9.076143779757 3 7504 7504 22512 168930048
301	1252973 80 904 152325 0.076143779757 9.076143779757 3 0 0 0 0
312	1253053 80 904 152325 0.076143779757 9.076143779757 3 0 0 0 0
322	1253133 86 980 152405 0.08045624878 9.08045624878 3 7504 7504 22512 168930048
323	1253219 86 980 152405 0.08045624878 9.08045624878 3 7504 7504 22512 168930048
325	1253305 77 980 152405 0.08045624878 9.08045624878 3 0 0 0 0
336	1253382 77 980 152405 0.08045624878 9.08045624878 3 0 0 0 0
346	1253459 84 1001 152427 0.0818522211 9.0818522211 3 7504 7504 22512 168930048
347	1253543 84 1001 152427 0.0818522211 9.0818522211 3 7504 7504 22512 168930048
349	1253627 75 1001 152427 0.0818522211 9.0818522211 3 0 0 0 0
360	1253702 75 1001 152427 0.0818522211 9.0818522211 3 0 0 0 0
