file 9447159 1589563072                                         
version 2
run CAIN-32-20200515-14:12:39-16547
attr configname CAIN
attr datetime 20200515-14:12:39
attr dist 200
attr experiment CAIN
attr inifile omnetpp.ini
attr iterationvars "$numUe=25, $pwr=-50, $dist=200, $mob=\"./movements/RWP-0.0.movements\""
attr iterationvars2 "$numUe=25, $pwr=-50, $dist=200, $mob=\"./movements/RWP-0.0.movements\", $repetition=2"
attr measurement "$numUe=25, $pwr=-50, $dist=200, $mob=\"./movements/RWP-0.0.movements\""
attr mob "\"./movements/RWP-0.0.movements\""
attr network lte.simulations.networks.CAIN
attr numUe 25
attr processid 16547
attr pwr -50
attr repetition 2
attr replication #2
attr resultdir results
attr runnumber 32
attr seedset 2
param **.**.amcMode "\"AUTO\""
param **.amcMode "\"D2D\""
param **.cainNetwork true
param **.channelControl.alpha 1.0
param **.channelControl.carrierFrequency 2100e+6Hz
param **.channelControl.pMax 10W
param **.d2dCqi 7
param **.deployer.numRbDl 50
param **.deployer.numRbUl 50
param **.distThresh ${dist=200}
param **.fbDelay 1
param **.feedbackComputation "xmldoc(\"config_channel.xml\")"
param **.mobility.constraintAreaMaxX 1000m
param **.mobility.constraintAreaMaxY 1000m
param **.mobility.constraintAreaMaxZ 0m
param **.mobility.constraintAreaMinX 0m
param **.mobility.constraintAreaMinY 0m
param **.mobility.constraintAreaMinZ 0m
param **.nic.phy.channelModel "xmldoc(\"config_channel.xml\")"
param **.numBands 50
param **.pwrThresh "${pwr= -50}"
param **.qtdThresh 3
param **.rbAllocationType "\"localized\""
param **.routingRecorder.enabled false
param **.tcpApp[*].tClose -1s
param **.ueD2DTx[*].mobility.changeAngleBy "normal(0deg, 30deg)"
param **.ueD2DTx[*].mobility.changeInterval "normal(5s, 0.1s)"
param **.ueD2DTx[*].mobility.nodeId -1
param **.ueD2DTx[*].mobility.speed "normal(2mps, 0.01mps)"
param **.ueD2DTx[*].mobility.traceFile "${mob=\"./movements/RWP-0.0.movements\",\"./movements/RWP-0.5.movements\",\"./movements/RPGM-0.0.movements\",\"./movements/RPGM-0.5.movements\",\"./movements/RWPRPGM-0.0.movements\",\"./movements/RWPRPGM-0.5.movements\"}"
param **.ueD2DTx[*].mobilityType "\"BonnMotionMobility\""
param **.usePreconfiguredTxParams false
param *.eNodeB*.numX2Apps 1
param *.eNodeB*.x2App[*].server.localPort "5000 + ancestorIndex(1)"
param *.eNodeB.d2dCapable false
param *.eNodeB.mobility.initFromDisplayString false
param *.eNodeB.mobility.initialX 300m
param *.eNodeB.mobility.initialY 300m
param *.eNodeB.nic.phy.enableD2DCqiReporting true
param *.eNodeB.txPower 19952.62315mw
param *.eNodeB.x2App[0].client.connectAddress "\"eNodeB1%x2ppp0\""
param *.eNodeB1.d2dCapable true
param *.eNodeB1.mobility.initFromDisplayString false
param *.eNodeB1.mobility.initialX 700m
param *.eNodeB1.mobility.initialY 300m
param *.eNodeB1.nic.phy.enableD2DCqiReporting true
param *.eNodeB1.txPower 19952.62315mw
param *.eNodeB1.x2App[0].client.connectAddress "\"eNodeB%x2ppp0\""
param *.extCell[*].bandAllocationType "\"FULL_ALLOC\""
param *.extCell[*].bandUtilization 0.5
param *.extCell[*].txDirection "\"ANISOTROPIC\""
param *.extCell[*].txPower 20
param *.extCell[0].position_x 100m
param *.extCell[0].position_y 600m
param *.extCell[0].txAngle 315
param *.extCell[1].position_x 600m
param *.extCell[1].position_y 600m
param *.extCell[1].txAngle 225
param *.numExtCells 2
param *.numUeCell 0
param *.numUeD2DRx 1
param *.numUeD2DTx 1
param *.ue*.macCellId 1
param *.ue*.masterId 1
param *.ue*.mobility.initFromDisplayString false
param *.ue*[0].macCellId 1
param *.ue*[0].masterId 1
param *.ue*[0].mobility.initFromDisplayString false
param *.ueD2D*.numTcpApps 1
param *.ueD2D*[*].d2dCapable true
param *.ueD2D*[0].d2dCapable false
param *.ueD2D*[0].numTcpApps 1
param *.ueD2DRx[0].mobility.initialX 310m
param *.ueD2DRx[0].mobility.initialY 350m
param *.ueD2DRx[0].tcpApp[*].localPort 1000
param *.ueD2DRx[0].tcpApp[*].typename "\"TCPSinkApp\""
param *.ueD2DTx*.nic.d2dPeerAddresses "\"ueD2DTx[1]\""
param *.ueD2DTx*.tcpApp[*].connectAddress "\"ueD2DTx[0]\""
param *.ueD2DTx*.tcpApp[*].localAddress "\"ueD2DTx\""
param *.ueD2DTx*.tcpApp[*].localPort 1000
param *.ueD2DTx*.tcpApp[*].sendBytes 1GiB
param *.ueD2DTx*.tcpApp[*].typename "\"TCPSessionApp\""
param *.ueD2DTx*.tcpApp[0].active true
param *.ueD2DTx*.tcpApp[0].connectPort 1000
param *.ueD2DTx*.tcpApp[0].tOpen uniform(0.010s,0.1s)
param *.ueD2DTx*.tcpApp[0].tSend uniform(0.15s,0.5s)
param *.ueD2DTx[0].mobility.initialX 290m
param *.ueD2DTx[0].mobility.initialY 350m
param *.ueD2DTx[0].tcpApp[*].localPort 1000
param *.ueD2DTx[0].tcpApp[*].sendBytes 1GiB
param *.ueD2DTx[0].tcpApp[*].typename "\"TCPSessionApp\""
param *.ueD2DTx[0].tcpApp[0].active true
param *.ueD2DTx[0].tcpApp[0].connectAddress "\"ueD2DRx[0]\""
param *.ueD2DTx[0].tcpApp[0].connectPort 1000
param *.ueD2DTx[0].tcpApp[0].localAddress "\"ueD2DTx[0]\""
param *.ueD2DTx[0].tcpApp[0].tOpen uniform(0.010s,0.1s)
param *.ueD2DTx[0].tcpApp[0].tSend uniform(0.15s,0.5s)

vector 8  CAIN.server.ppp[0].queue  queueLength:vector  ETV
attr interpolationmode  sample-hold
attr title  "queue length, vector"
vector 9  CAIN.server.ppp[0].ppp  txState:vector  ETV
attr interpolationmode  sample-hold
attr title  "tx state, vector"
vector 24  CAIN.router.ppp[0].queue  queueLength:vector  ETV
attr interpolationmode  sample-hold
attr title  "queue length, vector"
vector 25  CAIN.router.ppp[0].ppp  txState:vector  ETV
attr interpolationmode  sample-hold
attr title  "tx state, vector"
vector 35  CAIN.router.ppp[1].queue  queueLength:vector  ETV
attr interpolationmode  sample-hold
attr title  "queue length, vector"
vector 36  CAIN.router.ppp[1].ppp  txState:vector  ETV
attr interpolationmode  sample-hold
attr title  "tx state, vector"
vector 56  CAIN.pgw.ppp[0].queue  queueLength:vector  ETV
attr interpolationmode  sample-hold
attr title  "queue length, vector"
vector 57  CAIN.pgw.ppp[0].ppp  txState:vector  ETV
attr interpolationmode  sample-hold
attr title  "tx state, vector"
vector 67  CAIN.pgw.ppp[1].queue  queueLength:vector  ETV
attr interpolationmode  sample-hold
attr title  "queue length, vector"
vector 68  CAIN.pgw.ppp[1].ppp  txState:vector  ETV
attr interpolationmode  sample-hold
attr title  "tx state, vector"
vector 78  CAIN.pgw.pppInterface.queue  queueLength:vector  ETV
attr interpolationmode  sample-hold
attr title  "queue length, vector"
vector 79  CAIN.pgw.pppInterface.ppp  txState:vector  ETV
attr interpolationmode  sample-hold
attr title  "tx state, vector"
vector 120  CAIN.eNodeB.pppIf.queue  queueLength:vector  ETV
attr interpolationmode  sample-hold
attr title  "queue length, vector"
vector 121  CAIN.eNodeB.pppIf.ppp  txState:vector  ETV
attr interpolationmode  sample-hold
attr title  "tx state, vector"
vector 131  CAIN.eNodeB.x2ppp[0].queue  queueLength:vector  ETV
attr interpolationmode  sample-hold
attr title  "queue length, vector"
vector 132  CAIN.eNodeB.x2ppp[0].ppp  txState:vector  ETV
attr interpolationmode  sample-hold
attr title  "tx state, vector"
vector 178  CAIN.eNodeB1.pppIf.queue  queueLength:vector  ETV
attr interpolationmode  sample-hold
attr title  "queue length, vector"
vector 179  CAIN.eNodeB1.pppIf.ppp  txState:vector  ETV
attr interpolationmode  sample-hold
attr title  "tx state, vector"
vector 189  CAIN.eNodeB1.x2ppp[0].queue  queueLength:vector  ETV
attr interpolationmode  sample-hold
attr title  "queue length, vector"
vector 190  CAIN.eNodeB1.x2ppp[0].ppp  txState:vector  ETV
attr interpolationmode  sample-hold
attr title  "tx state, vector"
vector 231  CAIN.ueD2DTx[0].nic.phy  servingCell:vector  ETV
attr source  servingCell
attr title  "ID of the serving eNodeB for the UE, vector"
attr unit  ""
vector 263  CAIN.ueD2DTx[1].nic.phy  servingCell:vector  ETV
attr source  servingCell
attr title  "ID of the serving eNodeB for the UE, vector"
attr unit  ""
vector 295  CAIN.ueD2DTx[2].nic.phy  servingCell:vector  ETV
attr source  servingCell
attr title  "ID of the serving eNodeB for the UE, vector"
attr unit  ""
vector 327  CAIN.ueD2DTx[3].nic.phy  servingCell:vector  ETV
attr source  servingCell
attr title  "ID of the serving eNodeB for the UE, vector"
attr unit  ""
vector 359  CAIN.ueD2DTx[4].nic.phy  servingCell:vector  ETV
attr source  servingCell
attr title  "ID of the serving eNodeB for the UE, vector"
attr unit  ""
vector 391  CAIN.ueD2DTx[5].nic.phy  servingCell:vector  ETV
attr source  servingCell
attr title  "ID of the serving eNodeB for the UE, vector"
attr unit  ""
vector 423  CAIN.ueD2DTx[6].nic.phy  servingCell:vector  ETV
attr source  servingCell
attr title  "ID of the serving eNodeB for the UE, vector"
attr unit  ""
vector 455  CAIN.ueD2DTx[7].nic.phy  servingCell:vector  ETV
attr source  servingCell
attr title  "ID of the serving eNodeB for the UE, vector"
attr unit  ""
vector 487  CAIN.ueD2DTx[8].nic.phy  servingCell:vector  ETV
attr source  servingCell
attr title  "ID of the serving eNodeB for the UE, vector"
attr unit  ""
vector 519  CAIN.ueD2DTx[9].nic.phy  servingCell:vector  ETV
attr source  servingCell
attr title  "ID of the serving eNodeB for the UE, vector"
attr unit  ""
vector 551  CAIN.ueD2DTx[10].nic.phy  servingCell:vector  ETV
attr source  servingCell
attr title  "ID of the serving eNodeB for the UE, vector"
attr unit  ""
vector 583  CAIN.ueD2DTx[11].nic.phy  servingCell:vector  ETV
attr source  servingCell
attr title  "ID of the serving eNodeB for the UE, vector"
attr unit  ""
vector 615  CAIN.ueD2DTx[12].nic.phy  servingCell:vector  ETV
attr source  servingCell
attr title  "ID of the serving eNodeB for the UE, vector"
attr unit  ""
vector 647  CAIN.ueD2DTx[13].nic.phy  servingCell:vector  ETV
attr source  servingCell
attr title  "ID of the serving eNodeB for the UE, vector"
attr unit  ""
vector 679  CAIN.ueD2DTx[14].nic.phy  servingCell:vector  ETV
attr source  servingCell
attr title  "ID of the serving eNodeB for the UE, vector"
attr unit  ""
vector 711  CAIN.ueD2DTx[15].nic.phy  servingCell:vector  ETV
attr source  servingCell
attr title  "ID of the serving eNodeB for the UE, vector"
attr unit  ""
vector 743  CAIN.ueD2DTx[16].nic.phy  servingCell:vector  ETV
attr source  servingCell
attr title  "ID of the serving eNodeB for the UE, vector"
attr unit  ""
vector 775  CAIN.ueD2DTx[17].nic.phy  servingCell:vector  ETV
attr source  servingCell
attr title  "ID of the serving eNodeB for the UE, vector"
attr unit  ""
vector 807  CAIN.ueD2DTx[18].nic.phy  servingCell:vector  ETV
attr source  servingCell
attr title  "ID of the serving eNodeB for the UE, vector"
attr unit  ""
vector 839  CAIN.ueD2DTx[19].nic.phy  servingCell:vector  ETV
attr source  servingCell
attr title  "ID of the serving eNodeB for the UE, vector"
attr unit  ""
vector 871  CAIN.ueD2DTx[20].nic.phy  servingCell:vector  ETV
attr source  servingCell
attr title  "ID of the serving eNodeB for the UE, vector"
attr unit  ""
vector 903  CAIN.ueD2DTx[21].nic.phy  servingCell:vector  ETV
attr source  servingCell
attr title  "ID of the serving eNodeB for the UE, vector"
attr unit  ""
vector 935  CAIN.ueD2DTx[22].nic.phy  servingCell:vector  ETV
attr source  servingCell
attr title  "ID of the serving eNodeB for the UE, vector"
attr unit  ""
vector 967  CAIN.ueD2DTx[23].nic.phy  servingCell:vector  ETV
attr source  servingCell
attr title  "ID of the serving eNodeB for the UE, vector"
attr unit  ""
vector 999  CAIN.ueD2DTx[24].nic.phy  servingCell:vector  ETV
attr source  servingCell
attr title  "ID of the serving eNodeB for the UE, vector"
attr unit  ""
vector 1023  CAIN.eNodeB.sctp  "Throughput of Association 3"  ETV
vector 1045  CAIN.eNodeB1.sctp  "Throughput of Association 4"  ETV
vector 1067  CAIN.eNodeB.sctp  "Throughput of Association 1"  ETV
vector 1087  CAIN.eNodeB.sctp  "Fast Recovery State 1:10.0.5.2"  ETV
vector 1116  CAIN.eNodeB1.sctp  "Throughput of Association 2"  ETV
vector 1136  CAIN.eNodeB1.sctp  "Fast Recovery State 2:10.0.5.1"  ETV
vector 128  CAIN.eNodeB.x2ppp[0].queue  rcvdPk:vector(packetBytes)  ETV
attr interpolationmode  none
attr title  "received packets, vector(packetBytes)"
vector 130  CAIN.eNodeB.x2ppp[0].queue  queueingTime:vector  ETV
attr interpolationmode  none
attr title  "queueing time, vector"
vector 186  CAIN.eNodeB1.x2ppp[0].queue  rcvdPk:vector(packetBytes)  ETV
attr interpolationmode  none
attr title  "received packets, vector(packetBytes)"
vector 188  CAIN.eNodeB1.x2ppp[0].queue  queueingTime:vector  ETV
attr interpolationmode  none
attr title  "queueing time, vector"
vector 137  CAIN.eNodeB.x2ppp[0].ppp  rcvdPkFromHL:vector(packetBytes)  ETV
attr interpolationmode  none
attr source  packetReceivedFromUpper
attr title  "packets received from higher layer, vector(packetBytes)"
vector 133  CAIN.eNodeB.x2ppp[0].ppp  txPk:vector(packetBytes)  ETV
attr interpolationmode  none
attr source  packetSentToLower
attr title  "packets transmitted, vector(packetBytes)"
vector 195  CAIN.eNodeB1.x2ppp[0].ppp  rcvdPkFromHL:vector(packetBytes)  ETV
attr interpolationmode  none
attr source  packetReceivedFromUpper
attr title  "packets received from higher layer, vector(packetBytes)"
vector 191  CAIN.eNodeB1.x2ppp[0].ppp  txPk:vector(packetBytes)  ETV
attr interpolationmode  none
attr source  packetSentToLower
attr title  "packets transmitted, vector(packetBytes)"
vector 192  CAIN.eNodeB1.x2ppp[0].ppp  rxPkOk:vector(packetBytes)  ETV
attr interpolationmode  none
attr source  rxPkOk
attr title  "packets received OK, vector(packetBytes)"
vector 196  CAIN.eNodeB1.x2ppp[0].ppp  passedUpPk:vector(packetBytes)  ETV
attr interpolationmode  none
attr source  packetSentToUpper
attr title  "packets passed to higher layer, vector(packetBytes)"
vector 134  CAIN.eNodeB.x2ppp[0].ppp  rxPkOk:vector(packetBytes)  ETV
attr interpolationmode  none
attr source  rxPkOk
attr title  "packets received OK, vector(packetBytes)"
vector 138  CAIN.eNodeB.x2ppp[0].ppp  passedUpPk:vector(packetBytes)  ETV
attr interpolationmode  none
attr source  packetSentToUpper
attr title  "packets passed to higher layer, vector(packetBytes)"
vector 1165  CAIN.eNodeB1.sctp  "Throughput of Association 4"  ETV
vector 1042  CAIN.eNodeB1.sctp  "Peer Rwnd 4"  ETV
vector 1185  CAIN.eNodeB1.sctp  "Fast Recovery State 5:10.0.4.1"  ETV
vector 1212  CAIN.eNodeB1.sctp  "Fast Recovery State 5:10.0.2.2"  ETV
vector 1239  CAIN.eNodeB1.sctp  "Fast Recovery State 5:10.0.5.1"  ETV
vector 1268  CAIN.eNodeB.sctp  "Throughput of Association 3"  ETV
vector 1020  CAIN.eNodeB.sctp  "Peer Rwnd 3"  ETV
vector 1288  CAIN.eNodeB.sctp  "Fast Recovery State 6:10.0.4.2"  ETV
vector 1315  CAIN.eNodeB.sctp  "Fast Recovery State 6:10.0.3.2"  ETV
vector 1342  CAIN.eNodeB.sctp  "Fast Recovery State 6:10.0.5.2"  ETV
vector 1064  CAIN.eNodeB.sctp  "Peer Rwnd 1"  ETV
vector 1369  CAIN.eNodeB.sctp  "Fast Recovery State 1:10.0.4.2"  ETV
vector 1396  CAIN.eNodeB.sctp  "Fast Recovery State 1:10.0.3.2"  ETV
vector 1113  CAIN.eNodeB1.sctp  "Peer Rwnd 2"  ETV
vector 1423  CAIN.eNodeB1.sctp  "Fast Recovery State 2:10.0.4.1"  ETV
vector 1450  CAIN.eNodeB1.sctp  "Fast Recovery State 2:10.0.2.2"  ETV
vector 1195  CAIN.eNodeB1.sctp  "Slow Start Threshold 5:10.0.2.2"  ETV
vector 1196  CAIN.eNodeB1.sctp  "Congestion Window 5:10.0.2.2"  ETV
vector 1197  CAIN.eNodeB1.sctp  "Bandwidth 5:10.0.2.2"  ETV
vector 1200  CAIN.eNodeB1.sctp  "HB Sent 5:10.0.2.2"  ETV
vector 1193  CAIN.eNodeB1.sctp  "RTO 5:10.0.2.2"  ETV
vector 1168  CAIN.eNodeB1.sctp  "Slow Start Threshold 5:10.0.4.1"  ETV
vector 1169  CAIN.eNodeB1.sctp  "Congestion Window 5:10.0.4.1"  ETV
vector 1170  CAIN.eNodeB1.sctp  "Bandwidth 5:10.0.4.1"  ETV
vector 1173  CAIN.eNodeB1.sctp  "HB Sent 5:10.0.4.1"  ETV
vector 1166  CAIN.eNodeB1.sctp  "RTO 5:10.0.4.1"  ETV
vector 1222  CAIN.eNodeB1.sctp  "Slow Start Threshold 5:10.0.5.1"  ETV
vector 1223  CAIN.eNodeB1.sctp  "Congestion Window 5:10.0.5.1"  ETV
vector 1224  CAIN.eNodeB1.sctp  "Bandwidth 5:10.0.5.1"  ETV
vector 1220  CAIN.eNodeB1.sctp  "RTO 5:10.0.5.1"  ETV
vector 1298  CAIN.eNodeB.sctp  "Slow Start Threshold 6:10.0.3.2"  ETV
vector 1299  CAIN.eNodeB.sctp  "Congestion Window 6:10.0.3.2"  ETV
vector 1300  CAIN.eNodeB.sctp  "Bandwidth 6:10.0.3.2"  ETV
vector 1303  CAIN.eNodeB.sctp  "HB Sent 6:10.0.3.2"  ETV
vector 1296  CAIN.eNodeB.sctp  "RTO 6:10.0.3.2"  ETV
vector 1271  CAIN.eNodeB.sctp  "Slow Start Threshold 6:10.0.4.2"  ETV
vector 1272  CAIN.eNodeB.sctp  "Congestion Window 6:10.0.4.2"  ETV
vector 1273  CAIN.eNodeB.sctp  "Bandwidth 6:10.0.4.2"  ETV
vector 1276  CAIN.eNodeB.sctp  "HB Sent 6:10.0.4.2"  ETV
vector 1269  CAIN.eNodeB.sctp  "RTO 6:10.0.4.2"  ETV
vector 1325  CAIN.eNodeB.sctp  "Slow Start Threshold 6:10.0.5.2"  ETV
vector 1326  CAIN.eNodeB.sctp  "Congestion Window 6:10.0.5.2"  ETV
vector 1327  CAIN.eNodeB.sctp  "Bandwidth 6:10.0.5.2"  ETV
vector 1323  CAIN.eNodeB.sctp  "RTO 6:10.0.5.2"  ETV
vector 1076  CAIN.eNodeB.sctp  "HB ACK Sent 1:10.0.5.2"  ETV
vector 1077  CAIN.eNodeB.sctp  "HB Received 1:10.0.5.2"  ETV
vector 1125  CAIN.eNodeB1.sctp  "HB ACK Sent 2:10.0.5.1"  ETV
vector 1126  CAIN.eNodeB1.sctp  "HB Received 2:10.0.5.1"  ETV
vector 1379  CAIN.eNodeB.sctp  "Slow Start Threshold 1:10.0.3.2"  ETV
vector 1380  CAIN.eNodeB.sctp  "Congestion Window 1:10.0.3.2"  ETV
vector 1381  CAIN.eNodeB.sctp  "Bandwidth 1:10.0.3.2"  ETV
vector 1384  CAIN.eNodeB.sctp  "HB Sent 1:10.0.3.2"  ETV
vector 1377  CAIN.eNodeB.sctp  "RTO 1:10.0.3.2"  ETV
vector 1352  CAIN.eNodeB.sctp  "Slow Start Threshold 1:10.0.4.2"  ETV
vector 1353  CAIN.eNodeB.sctp  "Congestion Window 1:10.0.4.2"  ETV
vector 1354  CAIN.eNodeB.sctp  "Bandwidth 1:10.0.4.2"  ETV
vector 1357  CAIN.eNodeB.sctp  "HB Sent 1:10.0.4.2"  ETV
vector 1350  CAIN.eNodeB.sctp  "RTO 1:10.0.4.2"  ETV
vector 1070  CAIN.eNodeB.sctp  "Slow Start Threshold 1:10.0.5.2"  ETV
vector 1071  CAIN.eNodeB.sctp  "Congestion Window 1:10.0.5.2"  ETV
vector 1072  CAIN.eNodeB.sctp  "Bandwidth 1:10.0.5.2"  ETV
vector 1068  CAIN.eNodeB.sctp  "RTO 1:10.0.5.2"  ETV
vector 1433  CAIN.eNodeB1.sctp  "Slow Start Threshold 2:10.0.2.2"  ETV
vector 1434  CAIN.eNodeB1.sctp  "Congestion Window 2:10.0.2.2"  ETV
vector 1435  CAIN.eNodeB1.sctp  "Bandwidth 2:10.0.2.2"  ETV
vector 1438  CAIN.eNodeB1.sctp  "HB Sent 2:10.0.2.2"  ETV
vector 1431  CAIN.eNodeB1.sctp  "RTO 2:10.0.2.2"  ETV
vector 1406  CAIN.eNodeB1.sctp  "Slow Start Threshold 2:10.0.4.1"  ETV
vector 1407  CAIN.eNodeB1.sctp  "Congestion Window 2:10.0.4.1"  ETV
vector 1408  CAIN.eNodeB1.sctp  "Bandwidth 2:10.0.4.1"  ETV
vector 1411  CAIN.eNodeB1.sctp  "HB Sent 2:10.0.4.1"  ETV
vector 1404  CAIN.eNodeB1.sctp  "RTO 2:10.0.4.1"  ETV
vector 1119  CAIN.eNodeB1.sctp  "Slow Start Threshold 2:10.0.5.1"  ETV
vector 1120  CAIN.eNodeB1.sctp  "Congestion Window 2:10.0.5.1"  ETV
vector 1121  CAIN.eNodeB1.sctp  "Bandwidth 2:10.0.5.1"  ETV
vector 1117  CAIN.eNodeB1.sctp  "RTO 2:10.0.5.1"  ETV
vector 1333  CAIN.eNodeB.sctp  "HB ACK Received 6:10.0.5.2"  ETV
vector 1324  CAIN.eNodeB.sctp  "RTT 6:10.0.5.2"  ETV
vector 1230  CAIN.eNodeB1.sctp  "HB ACK Received 5:10.0.5.1"  ETV
vector 1221  CAIN.eNodeB1.sctp  "RTT 5:10.0.5.1"  ETV
vector 1331  CAIN.eNodeB.sctp  "HB ACK Sent 6:10.0.5.2"  ETV
vector 1332  CAIN.eNodeB.sctp  "HB Received 6:10.0.5.2"  ETV
vector 1228  CAIN.eNodeB1.sctp  "HB ACK Sent 5:10.0.5.1"  ETV
vector 1229  CAIN.eNodeB1.sctp  "HB Received 5:10.0.5.1"  ETV
vector 1127  CAIN.eNodeB1.sctp  "HB ACK Received 2:10.0.5.1"  ETV
vector 1118  CAIN.eNodeB1.sctp  "RTT 2:10.0.5.1"  ETV
vector 1078  CAIN.eNodeB.sctp  "HB ACK Received 1:10.0.5.2"  ETV
vector 1069  CAIN.eNodeB.sctp  "RTT 1:10.0.5.2"  ETV
vector 96  CAIN.eNodeB.nic.mac  receivedPacketFromLowerLayer:vector(packetBytes)  ETV
attr interpolationmode  none
attr source  receivedPacketFromLowerLayer
vector 1465  CAIN.eNodeB.sctp  "SendQueue of Association 6"  ETV
vector 1328  CAIN.eNodeB.sctp  "TSN Sent 6:10.0.5.2"  ETV
vector 1335  CAIN.eNodeB.sctp  "Outstanding Bytes 6:10.0.5.2"  ETV
vector 1008  CAIN.eNodeB.sctp  "Outstanding Bytes 3:Total"  ETV
vector 1334  CAIN.eNodeB.sctp  "Queued Sent Bytes 6:10.0.5.2"  ETV
vector 1007  CAIN.eNodeB.sctp  "Queued Sent Bytes 3:Total"  ETV
vector 1123  CAIN.eNodeB1.sctp  "TSN Received 2:10.0.5.1"  ETV
vector 1099  CAIN.eNodeB1.sctp  "Queued Received Bytes 2:Total"  ETV
vector 1095  CAIN.eNodeB1.sctp  "Advertised Receiver Window 2"  ETV
vector 1104  CAIN.eNodeB1.sctp  "Number of Total Gap Blocks Stored 2"  ETV
vector 1105  CAIN.eNodeB1.sctp  "Number of Revokable Gap Blocks Stored 2"  ETV
vector 1106  CAIN.eNodeB1.sctp  "Number of Non-Revokable Gap Blocks Stored 2"  ETV
vector 1107  CAIN.eNodeB1.sctp  "Number of Duplicate TSNs Stored 2"  ETV
vector 1111  CAIN.eNodeB1.sctp  "Length of SACK Sent 2"  ETV
vector 1108  CAIN.eNodeB1.sctp  "Number of Revokable Gap Blocks Sent 2"  ETV
vector 1109  CAIN.eNodeB1.sctp  "Number of Non-Revokable Gap Blocks Sent 2"  ETV
vector 1110  CAIN.eNodeB1.sctp  "Number of Duplicate TSNs Sent 2"  ETV
vector 1115  CAIN.eNodeB1.sctp  "End to End Delay of Association 2"  ETV
vector 199  CAIN.eNodeB1.x2App[0].client  rcvdPk:vector(packetBytes)  ETV
attr interpolationmode  none
attr source  rcvdPk
attr title  "packets received, vector(packetBytes)"
vector 1464  CAIN.eNodeB.sctp  "Number of Gap Blocks in Last SACK of Association 6"  ETV
vector 1009  CAIN.eNodeB.sctp  "Number of Revokable Gap Blocks in SACK 3"  ETV
vector 1010  CAIN.eNodeB.sctp  "Number of Non-Revokable Gap Blocks in SACK 3"  ETV
vector 1345  CAIN.eNodeB.sctp  "TSN Acked CumAck 6:10.0.5.2"  ETV
vector 1311  CAIN.eNodeB.sctp  "Number of Gap Acked Chunks in Last SACK 6:10.0.3.2"  ETV
vector 1312  CAIN.eNodeB.sctp  "Number of Non-Revokable Gap Acked Chunks in Last SACK 6:10.0.3.2"  ETV
vector 1313  CAIN.eNodeB.sctp  "Number of Gap Missed Chunks in Last SACK 6:10.0.3.2"  ETV
vector 1284  CAIN.eNodeB.sctp  "Number of Gap Acked Chunks in Last SACK 6:10.0.4.2"  ETV
vector 1285  CAIN.eNodeB.sctp  "Number of Non-Revokable Gap Acked Chunks in Last SACK 6:10.0.4.2"  ETV
vector 1286  CAIN.eNodeB.sctp  "Number of Gap Missed Chunks in Last SACK 6:10.0.4.2"  ETV
vector 1338  CAIN.eNodeB.sctp  "Number of Gap Acked Chunks in Last SACK 6:10.0.5.2"  ETV
vector 1339  CAIN.eNodeB.sctp  "Number of Non-Revokable Gap Acked Chunks in Last SACK 6:10.0.5.2"  ETV
vector 1340  CAIN.eNodeB.sctp  "Number of Gap Missed Chunks in Last SACK 6:10.0.5.2"  ETV
vector 1019  CAIN.eNodeB.sctp  "Arwnd in Last SACK 3"  ETV
vector 1347  CAIN.eNodeB.sctp  "TSN PseudoCumAck 6:10.0.5.2"  ETV
vector 1348  CAIN.eNodeB.sctp  "TSN RTXPseudoCumAck 6:10.0.5.2"  ETV
vector 1341  CAIN.eNodeB.sctp  "Partial Bytes Acked 6:10.0.5.2"  ETV
vector 1493  CAIN.ueD2DTx[17].tcp  tcpRcvQueueBytes  ETV
vector 1480  CAIN.ueD2DTx[17].tcp  "advertised window"  ETV
vector 1479  CAIN.ueD2DTx[17].tcp  "receive window"  ETV
vector 1482  CAIN.ueD2DTx[17].tcp  "sent ack"  ETV
vector 749  CAIN.ueD2DTx[17].nic.pdcpRrc  receivedPacketFromUpperLayer:vector(packetBytes)  ETV
attr interpolationmode  none
attr source  receivedPacketFromUpperLayer
vector 752  CAIN.ueD2DTx[17].nic.pdcpRrc  sentPacketToLowerLayer:vector(packetBytes)  ETV
attr interpolationmode  none
attr source  sentPacketToLowerLayer
vector 753  CAIN.ueD2DTx[17].nic.mac  receivedPacketFromUpperLayer:vector(packetBytes)  ETV
attr interpolationmode  none
attr source  receivedPacketFromUpperLayer
vector 763  CAIN.ueD2DTx[17].nic.mac  CainHopMessageSent:vector  ETV
attr interpolationmode  none
attr title  "# of Sent CAIN hop message, vector"
vector 756  CAIN.ueD2DTx[17].nic.mac  sentPacketToLowerLayer:vector(packetBytes)  ETV
attr interpolationmode  none
attr source  sentPacketToLowerLayer
vector 274  CAIN.ueD2DTx[2].nic.mac  receivedPacketFromLowerLayer:vector(packetBytes)  ETV
attr interpolationmode  none
attr source  receivedPacketFromLowerLayer
vector 276  CAIN.ueD2DTx[2].nic.mac  sentPacketToLowerLayer:vector(packetBytes)  ETV
attr interpolationmode  none
attr source  sentPacketToLowerLayer
vector 338  CAIN.ueD2DTx[4].nic.mac  receivedPacketFromLowerLayer:vector(packetBytes)  ETV
attr interpolationmode  none
attr source  receivedPacketFromLowerLayer
vector 340  CAIN.ueD2DTx[4].nic.mac  sentPacketToLowerLayer:vector(packetBytes)  ETV
attr interpolationmode  none
attr source  sentPacketToLowerLayer
vector 111  CAIN.eNodeB.nic.mac  racpkt:vector  ETV
attr interpolationmode  none
attr title  "eNB received racpkt message, vector"
vector 112  CAIN.eNodeB.nic.mac  racDistanceSignal:vector  ETV
attr interpolationmode  none
attr title  "Rac distance to enb, vector"
vector 113  CAIN.eNodeB.nic.mac  racServedDevsSignal:vector  ETV
attr interpolationmode  none
attr title  "# of devices served on rac arriavall, vector"
vector 106  CAIN.eNodeB.nic.mac  DistanceSignal:vector  ETV
attr interpolationmode  none
attr title  "Distance to enb, vector"
vector 101  CAIN.eNodeB.nic.mac  CainHopMessage:vector  ETV
attr interpolationmode  none
attr title  "eNB received CAIN hop message, vector"
vector 98  CAIN.eNodeB.nic.mac  sentPacketToLowerLayer:vector(packetBytes)  ETV
attr interpolationmode  none
attr source  sentPacketToLowerLayer
vector 1517  CAIN.ueD2DTx[24].tcp  tcpRcvQueueBytes  ETV
vector 1504  CAIN.ueD2DTx[24].tcp  "advertised window"  ETV
vector 1503  CAIN.ueD2DTx[24].tcp  "receive window"  ETV
vector 1506  CAIN.ueD2DTx[24].tcp  "sent ack"  ETV
vector 973  CAIN.ueD2DTx[24].nic.pdcpRrc  receivedPacketFromUpperLayer:vector(packetBytes)  ETV
attr interpolationmode  none
attr source  receivedPacketFromUpperLayer
vector 976  CAIN.ueD2DTx[24].nic.pdcpRrc  sentPacketToLowerLayer:vector(packetBytes)  ETV
attr interpolationmode  none
attr source  sentPacketToLowerLayer
vector 977  CAIN.ueD2DTx[24].nic.mac  receivedPacketFromUpperLayer:vector(packetBytes)  ETV
attr interpolationmode  none
attr source  receivedPacketFromUpperLayer
vector 980  CAIN.ueD2DTx[24].nic.mac  sentPacketToLowerLayer:vector(packetBytes)  ETV
attr interpolationmode  none
attr source  sentPacketToLowerLayer
vector 345  CAIN.ueD2DTx[4].nic.mac  DropedHopMessage:vector  ETV
attr interpolationmode  none
attr title  "Droped Hop CAIN message due to RB not available, vector"
vector 978  CAIN.ueD2DTx[24].nic.mac  receivedPacketFromLowerLayer:vector(packetBytes)  ETV
attr interpolationmode  none
attr source  receivedPacketFromLowerLayer
vector 1541  CAIN.ueD2DTx[8].tcp  tcpRcvQueueBytes  ETV
vector 1528  CAIN.ueD2DTx[8].tcp  "advertised window"  ETV
vector 1527  CAIN.ueD2DTx[8].tcp  "receive window"  ETV
vector 1530  CAIN.ueD2DTx[8].tcp  "sent ack"  ETV
vector 461  CAIN.ueD2DTx[8].nic.pdcpRrc  receivedPacketFromUpperLayer:vector(packetBytes)  ETV
attr interpolationmode  none
attr source  receivedPacketFromUpperLayer
vector 464  CAIN.ueD2DTx[8].nic.pdcpRrc  sentPacketToLowerLayer:vector(packetBytes)  ETV
attr interpolationmode  none
attr source  sentPacketToLowerLayer
vector 465  CAIN.ueD2DTx[8].nic.mac  receivedPacketFromUpperLayer:vector(packetBytes)  ETV
attr interpolationmode  none
attr source  receivedPacketFromUpperLayer
vector 475  CAIN.ueD2DTx[8].nic.mac  CainHopMessageSent:vector  ETV
attr interpolationmode  none
attr title  "# of Sent CAIN hop message, vector"
vector 468  CAIN.ueD2DTx[8].nic.mac  sentPacketToLowerLayer:vector(packetBytes)  ETV
attr interpolationmode  none
attr source  sentPacketToLowerLayer
vector 402  CAIN.ueD2DTx[6].nic.mac  receivedPacketFromLowerLayer:vector(packetBytes)  ETV
attr interpolationmode  none
attr source  receivedPacketFromLowerLayer
vector 404  CAIN.ueD2DTx[6].nic.mac  sentPacketToLowerLayer:vector(packetBytes)  ETV
attr interpolationmode  none
attr source  sentPacketToLowerLayer
vector 115  CAIN.eNodeB.nic.phy  averageCqiUlvect:vector  ETV
attr source  averageCqiUlvect
attr title  "Average Cqi reported in UL, vector"
attr unit  cqi
vector 914  CAIN.ueD2DTx[22].nic.mac  receivedPacketFromLowerLayer:vector(packetBytes)  ETV
attr interpolationmode  none
attr source  receivedPacketFromLowerLayer
vector 916  CAIN.ueD2DTx[22].nic.mac  sentPacketToLowerLayer:vector(packetBytes)  ETV
attr interpolationmode  none
attr source  sentPacketToLowerLayer
vector 1565  CAIN.ueD2DTx[9].tcp  tcpRcvQueueBytes  ETV
vector 1552  CAIN.ueD2DTx[9].tcp  "advertised window"  ETV
vector 1551  CAIN.ueD2DTx[9].tcp  "receive window"  ETV
vector 1554  CAIN.ueD2DTx[9].tcp  "sent ack"  ETV
vector 493  CAIN.ueD2DTx[9].nic.pdcpRrc  receivedPacketFromUpperLayer:vector(packetBytes)  ETV
attr interpolationmode  none
attr source  receivedPacketFromUpperLayer
vector 496  CAIN.ueD2DTx[9].nic.pdcpRrc  sentPacketToLowerLayer:vector(packetBytes)  ETV
attr interpolationmode  none
attr source  sentPacketToLowerLayer
vector 497  CAIN.ueD2DTx[9].nic.mac  receivedPacketFromUpperLayer:vector(packetBytes)  ETV
attr interpolationmode  none
attr source  receivedPacketFromUpperLayer
vector 500  CAIN.ueD2DTx[9].nic.mac  sentPacketToLowerLayer:vector(packetBytes)  ETV
attr interpolationmode  none
attr source  sentPacketToLowerLayer
vector 921  CAIN.ueD2DTx[22].nic.mac  DropedHopMessage:vector  ETV
attr interpolationmode  none
attr title  "Droped Hop CAIN message due to RB not available, vector"
vector 498  CAIN.ueD2DTx[9].nic.mac  receivedPacketFromLowerLayer:vector(packetBytes)  ETV
attr interpolationmode  none
attr source  receivedPacketFromLowerLayer
vector 499  CAIN.ueD2DTx[9].nic.mac  sentPacketToUpperLayer:vector(packetBytes)  ETV
attr interpolationmode  none
attr source  sentPacketToUpperLayer
vector 1589  CAIN.ueD2DTx[7].tcp  tcpRcvQueueBytes  ETV
vector 1576  CAIN.ueD2DTx[7].tcp  "advertised window"  ETV
vector 1575  CAIN.ueD2DTx[7].tcp  "receive window"  ETV
vector 1578  CAIN.ueD2DTx[7].tcp  "sent ack"  ETV
vector 429  CAIN.ueD2DTx[7].nic.pdcpRrc  receivedPacketFromUpperLayer:vector(packetBytes)  ETV
attr interpolationmode  none
attr source  receivedPacketFromUpperLayer
vector 432  CAIN.ueD2DTx[7].nic.pdcpRrc  sentPacketToLowerLayer:vector(packetBytes)  ETV
attr interpolationmode  none
attr source  sentPacketToLowerLayer
vector 433  CAIN.ueD2DTx[7].nic.mac  receivedPacketFromUpperLayer:vector(packetBytes)  ETV
attr interpolationmode  none
attr source  receivedPacketFromUpperLayer
vector 436  CAIN.ueD2DTx[7].nic.mac  sentPacketToLowerLayer:vector(packetBytes)  ETV
attr interpolationmode  none
attr source  sentPacketToLowerLayer
vector 1613  CAIN.ueD2DTx[5].tcp  tcpRcvQueueBytes  ETV
vector 1600  CAIN.ueD2DTx[5].tcp  "advertised window"  ETV
vector 1599  CAIN.ueD2DTx[5].tcp  "receive window"  ETV
vector 1602  CAIN.ueD2DTx[5].tcp  "sent ack"  ETV
vector 365  CAIN.ueD2DTx[5].nic.pdcpRrc  receivedPacketFromUpperLayer:vector(packetBytes)  ETV
attr interpolationmode  none
attr source  receivedPacketFromUpperLayer
vector 368  CAIN.ueD2DTx[5].nic.pdcpRrc  sentPacketToLowerLayer:vector(packetBytes)  ETV
attr interpolationmode  none
attr source  sentPacketToLowerLayer
vector 369  CAIN.ueD2DTx[5].nic.mac  receivedPacketFromUpperLayer:vector(packetBytes)  ETV
attr interpolationmode  none
attr source  receivedPacketFromUpperLayer
vector 379  CAIN.ueD2DTx[5].nic.mac  CainHopMessageSent:vector  ETV
attr interpolationmode  none
attr title  "# of Sent CAIN hop message, vector"
vector 372  CAIN.ueD2DTx[5].nic.mac  sentPacketToLowerLayer:vector(packetBytes)  ETV
attr interpolationmode  none
attr source  sentPacketToLowerLayer
vector 434  CAIN.ueD2DTx[7].nic.mac  receivedPacketFromLowerLayer:vector(packetBytes)  ETV
attr interpolationmode  none
attr source  receivedPacketFromLowerLayer
vector 1637  CAIN.ueD2DTx[10].tcp  tcpRcvQueueBytes  ETV
vector 1624  CAIN.ueD2DTx[10].tcp  "advertised window"  ETV
vector 1623  CAIN.ueD2DTx[10].tcp  "receive window"  ETV
vector 1626  CAIN.ueD2DTx[10].tcp  "sent ack"  ETV
vector 525  CAIN.ueD2DTx[10].nic.pdcpRrc  receivedPacketFromUpperLayer:vector(packetBytes)  ETV
attr interpolationmode  none
attr source  receivedPacketFromUpperLayer
vector 528  CAIN.ueD2DTx[10].nic.pdcpRrc  sentPacketToLowerLayer:vector(packetBytes)  ETV
attr interpolationmode  none
attr source  sentPacketToLowerLayer
vector 529  CAIN.ueD2DTx[10].nic.mac  receivedPacketFromUpperLayer:vector(packetBytes)  ETV
attr interpolationmode  none
attr source  receivedPacketFromUpperLayer
vector 1661  CAIN.ueD2DTx[13].tcp  tcpRcvQueueBytes  ETV
vector 1648  CAIN.ueD2DTx[13].tcp  "advertised window"  ETV
vector 1647  CAIN.ueD2DTx[13].tcp  "receive window"  ETV
vector 1650  CAIN.ueD2DTx[13].tcp  "sent ack"  ETV
vector 621  CAIN.ueD2DTx[13].nic.pdcpRrc  receivedPacketFromUpperLayer:vector(packetBytes)  ETV
attr interpolationmode  none
attr source  receivedPacketFromUpperLayer
vector 624  CAIN.ueD2DTx[13].nic.pdcpRrc  sentPacketToLowerLayer:vector(packetBytes)  ETV
attr interpolationmode  none
attr source  sentPacketToLowerLayer
vector 625  CAIN.ueD2DTx[13].nic.mac  receivedPacketFromUpperLayer:vector(packetBytes)  ETV
attr interpolationmode  none
attr source  receivedPacketFromUpperLayer
vector 538  CAIN.ueD2DTx[10].nic.mac  CainMessageSent:vector  ETV
attr interpolationmode  none
attr title  "# of Sent CAIN message, vector"
vector 532  CAIN.ueD2DTx[10].nic.mac  sentPacketToLowerLayer:vector(packetBytes)  ETV
attr interpolationmode  none
attr source  sentPacketToLowerLayer
vector 635  CAIN.ueD2DTx[13].nic.mac  CainHopMessageSent:vector  ETV
attr interpolationmode  none
attr title  "# of Sent CAIN hop message, vector"
vector 628  CAIN.ueD2DTx[13].nic.mac  sentPacketToLowerLayer:vector(packetBytes)  ETV
attr interpolationmode  none
attr source  sentPacketToLowerLayer
vector 530  CAIN.ueD2DTx[10].nic.mac  receivedPacketFromLowerLayer:vector(packetBytes)  ETV
attr interpolationmode  none
attr source  receivedPacketFromLowerLayer
vector 1685  CAIN.ueD2DTx[0].tcp  tcpRcvQueueBytes  ETV
vector 1672  CAIN.ueD2DTx[0].tcp  "advertised window"  ETV
vector 1671  CAIN.ueD2DTx[0].tcp  "receive window"  ETV
vector 1674  CAIN.ueD2DTx[0].tcp  "sent ack"  ETV
vector 205  CAIN.ueD2DTx[0].nic.pdcpRrc  receivedPacketFromUpperLayer:vector(packetBytes)  ETV
attr interpolationmode  none
attr source  receivedPacketFromUpperLayer
vector 208  CAIN.ueD2DTx[0].nic.pdcpRrc  sentPacketToLowerLayer:vector(packetBytes)  ETV
attr interpolationmode  none
attr source  sentPacketToLowerLayer
vector 209  CAIN.ueD2DTx[0].nic.mac  receivedPacketFromUpperLayer:vector(packetBytes)  ETV
attr interpolationmode  none
attr source  receivedPacketFromUpperLayer
vector 219  CAIN.ueD2DTx[0].nic.mac  CainHopMessageSent:vector  ETV
attr interpolationmode  none
attr title  "# of Sent CAIN hop message, vector"
vector 212  CAIN.ueD2DTx[0].nic.mac  sentPacketToLowerLayer:vector(packetBytes)  ETV
attr interpolationmode  none
attr source  sentPacketToLowerLayer
vector 435  CAIN.ueD2DTx[7].nic.mac  sentPacketToUpperLayer:vector(packetBytes)  ETV
attr interpolationmode  none
attr source  sentPacketToUpperLayer
vector 722  CAIN.ueD2DTx[16].nic.mac  receivedPacketFromLowerLayer:vector(packetBytes)  ETV
attr interpolationmode  none
attr source  receivedPacketFromLowerLayer
vector 724  CAIN.ueD2DTx[16].nic.mac  sentPacketToLowerLayer:vector(packetBytes)  ETV
attr interpolationmode  none
attr source  sentPacketToLowerLayer
vector 100  CAIN.eNodeB.nic.mac  CainMessage:vector  ETV
attr interpolationmode  none
attr title  "eNB received CAIN message, vector"
vector 728  CAIN.ueD2DTx[16].nic.mac  DropedCainMessage:vector  ETV
attr interpolationmode  none
attr title  "Droped CAIN message due to RB not available, vector"
vector 729  CAIN.ueD2DTx[16].nic.mac  DropedHopMessage:vector  ETV
attr interpolationmode  none
attr title  "Droped Hop CAIN message due to RB not available, vector"
vector 109  CAIN.eNodeB.nic.mac  ServedHopDevs:vector  ETV
attr interpolationmode  none
attr title  "# of devices served on hop forwarding, vector"
vector 1709  CAIN.ueD2DTx[21].tcp  tcpRcvQueueBytes  ETV
vector 1696  CAIN.ueD2DTx[21].tcp  "advertised window"  ETV
vector 1695  CAIN.ueD2DTx[21].tcp  "receive window"  ETV
vector 1698  CAIN.ueD2DTx[21].tcp  "sent ack"  ETV
vector 877  CAIN.ueD2DTx[21].nic.pdcpRrc  receivedPacketFromUpperLayer:vector(packetBytes)  ETV
attr interpolationmode  none
attr source  receivedPacketFromUpperLayer
vector 880  CAIN.ueD2DTx[21].nic.pdcpRrc  sentPacketToLowerLayer:vector(packetBytes)  ETV
attr interpolationmode  none
attr source  sentPacketToLowerLayer
vector 881  CAIN.ueD2DTx[21].nic.mac  receivedPacketFromUpperLayer:vector(packetBytes)  ETV
attr interpolationmode  none
attr source  receivedPacketFromUpperLayer
vector 891  CAIN.ueD2DTx[21].nic.mac  CainHopMessageSent:vector  ETV
attr interpolationmode  none
attr title  "# of Sent CAIN hop message, vector"
vector 884  CAIN.ueD2DTx[21].nic.mac  sentPacketToLowerLayer:vector(packetBytes)  ETV
attr interpolationmode  none
attr source  sentPacketToLowerLayer
vector 1733  CAIN.ueD2DTx[20].tcp  tcpRcvQueueBytes  ETV
vector 1720  CAIN.ueD2DTx[20].tcp  "advertised window"  ETV
vector 1719  CAIN.ueD2DTx[20].tcp  "receive window"  ETV
vector 1722  CAIN.ueD2DTx[20].tcp  "sent ack"  ETV
vector 845  CAIN.ueD2DTx[20].nic.pdcpRrc  receivedPacketFromUpperLayer:vector(packetBytes)  ETV
attr interpolationmode  none
attr source  receivedPacketFromUpperLayer
vector 848  CAIN.ueD2DTx[20].nic.pdcpRrc  sentPacketToLowerLayer:vector(packetBytes)  ETV
attr interpolationmode  none
attr source  sentPacketToLowerLayer
vector 849  CAIN.ueD2DTx[20].nic.mac  receivedPacketFromUpperLayer:vector(packetBytes)  ETV
attr interpolationmode  none
attr source  receivedPacketFromUpperLayer
vector 859  CAIN.ueD2DTx[20].nic.mac  CainHopMessageSent:vector  ETV
attr interpolationmode  none
attr title  "# of Sent CAIN hop message, vector"
vector 852  CAIN.ueD2DTx[20].nic.mac  sentPacketToLowerLayer:vector(packetBytes)  ETV
attr interpolationmode  none
attr source  sentPacketToLowerLayer
vector 1757  CAIN.ueD2DTx[16].tcp  tcpRcvQueueBytes  ETV
vector 1744  CAIN.ueD2DTx[16].tcp  "advertised window"  ETV
vector 1743  CAIN.ueD2DTx[16].tcp  "receive window"  ETV
vector 1746  CAIN.ueD2DTx[16].tcp  "sent ack"  ETV
vector 717  CAIN.ueD2DTx[16].nic.pdcpRrc  receivedPacketFromUpperLayer:vector(packetBytes)  ETV
attr interpolationmode  none
attr source  receivedPacketFromUpperLayer
vector 720  CAIN.ueD2DTx[16].nic.pdcpRrc  sentPacketToLowerLayer:vector(packetBytes)  ETV
attr interpolationmode  none
attr source  sentPacketToLowerLayer
vector 721  CAIN.ueD2DTx[16].nic.mac  receivedPacketFromUpperLayer:vector(packetBytes)  ETV
attr interpolationmode  none
attr source  receivedPacketFromUpperLayer
vector 1781  CAIN.ueD2DTx[22].tcp  tcpRcvQueueBytes  ETV
vector 1768  CAIN.ueD2DTx[22].tcp  "advertised window"  ETV
vector 1767  CAIN.ueD2DTx[22].tcp  "receive window"  ETV
vector 1770  CAIN.ueD2DTx[22].tcp  "sent ack"  ETV
vector 909  CAIN.ueD2DTx[22].nic.pdcpRrc  receivedPacketFromUpperLayer:vector(packetBytes)  ETV
attr interpolationmode  none
attr source  receivedPacketFromUpperLayer
vector 912  CAIN.ueD2DTx[22].nic.pdcpRrc  sentPacketToLowerLayer:vector(packetBytes)  ETV
attr interpolationmode  none
attr source  sentPacketToLowerLayer
vector 913  CAIN.ueD2DTx[22].nic.mac  receivedPacketFromUpperLayer:vector(packetBytes)  ETV
attr interpolationmode  none
attr source  receivedPacketFromUpperLayer
vector 723  CAIN.ueD2DTx[16].nic.mac  sentPacketToUpperLayer:vector(packetBytes)  ETV
attr interpolationmode  none
attr source  sentPacketToUpperLayer
vector 1461  CAIN.eNodeB1.sctp  "SendQueue of Association 5"  ETV
vector 1225  CAIN.eNodeB1.sctp  "TSN Sent 5:10.0.5.1"  ETV
vector 1232  CAIN.eNodeB1.sctp  "Outstanding Bytes 5:10.0.5.1"  ETV
vector 1030  CAIN.eNodeB1.sctp  "Outstanding Bytes 4:Total"  ETV
vector 1231  CAIN.eNodeB1.sctp  "Queued Sent Bytes 5:10.0.5.1"  ETV
vector 1029  CAIN.eNodeB1.sctp  "Queued Sent Bytes 4:Total"  ETV
vector 108  CAIN.eNodeB.nic.mac  ServedDevs:vector  ETV
attr interpolationmode  none
attr title  "# of devices served on cain forwarding, vector"
vector 1074  CAIN.eNodeB.sctp  "TSN Received 1:10.0.5.2"  ETV
vector 1050  CAIN.eNodeB.sctp  "Queued Received Bytes 1:Total"  ETV
vector 1046  CAIN.eNodeB.sctp  "Advertised Receiver Window 1"  ETV
vector 1055  CAIN.eNodeB.sctp  "Number of Total Gap Blocks Stored 1"  ETV
vector 1056  CAIN.eNodeB.sctp  "Number of Revokable Gap Blocks Stored 1"  ETV
vector 1057  CAIN.eNodeB.sctp  "Number of Non-Revokable Gap Blocks Stored 1"  ETV
vector 1058  CAIN.eNodeB.sctp  "Number of Duplicate TSNs Stored 1"  ETV
vector 1062  CAIN.eNodeB.sctp  "Length of SACK Sent 1"  ETV
vector 1059  CAIN.eNodeB.sctp  "Number of Revokable Gap Blocks Sent 1"  ETV
vector 1060  CAIN.eNodeB.sctp  "Number of Non-Revokable Gap Blocks Sent 1"  ETV
vector 1061  CAIN.eNodeB.sctp  "Number of Duplicate TSNs Sent 1"  ETV
vector 1066  CAIN.eNodeB.sctp  "End to End Delay of Association 1"  ETV
vector 141  CAIN.eNodeB.x2App[0].client  rcvdPk:vector(packetBytes)  ETV
attr interpolationmode  none
attr source  rcvdPk
attr title  "packets received, vector(packetBytes)"
vector 1460  CAIN.eNodeB1.sctp  "Number of Gap Blocks in Last SACK of Association 5"  ETV
vector 1031  CAIN.eNodeB1.sctp  "Number of Revokable Gap Blocks in SACK 4"  ETV
vector 1032  CAIN.eNodeB1.sctp  "Number of Non-Revokable Gap Blocks in SACK 4"  ETV
vector 1242  CAIN.eNodeB1.sctp  "TSN Acked CumAck 5:10.0.5.1"  ETV
vector 1208  CAIN.eNodeB1.sctp  "Number of Gap Acked Chunks in Last SACK 5:10.0.2.2"  ETV
vector 1209  CAIN.eNodeB1.sctp  "Number of Non-Revokable Gap Acked Chunks in Last SACK 5:10.0.2.2"  ETV
vector 1210  CAIN.eNodeB1.sctp  "Number of Gap Missed Chunks in Last SACK 5:10.0.2.2"  ETV
vector 1181  CAIN.eNodeB1.sctp  "Number of Gap Acked Chunks in Last SACK 5:10.0.4.1"  ETV
vector 1182  CAIN.eNodeB1.sctp  "Number of Non-Revokable Gap Acked Chunks in Last SACK 5:10.0.4.1"  ETV
vector 1183  CAIN.eNodeB1.sctp  "Number of Gap Missed Chunks in Last SACK 5:10.0.4.1"  ETV
vector 1235  CAIN.eNodeB1.sctp  "Number of Gap Acked Chunks in Last SACK 5:10.0.5.1"  ETV
vector 1236  CAIN.eNodeB1.sctp  "Number of Non-Revokable Gap Acked Chunks in Last SACK 5:10.0.5.1"  ETV
vector 1237  CAIN.eNodeB1.sctp  "Number of Gap Missed Chunks in Last SACK 5:10.0.5.1"  ETV
vector 1041  CAIN.eNodeB1.sctp  "Arwnd in Last SACK 4"  ETV
vector 1244  CAIN.eNodeB1.sctp  "TSN PseudoCumAck 5:10.0.5.1"  ETV
vector 1245  CAIN.eNodeB1.sctp  "TSN RTXPseudoCumAck 5:10.0.5.1"  ETV
vector 1238  CAIN.eNodeB1.sctp  "Partial Bytes Acked 5:10.0.5.1"  ETV
vector 915  CAIN.ueD2DTx[22].nic.mac  sentPacketToUpperLayer:vector(packetBytes)  ETV
attr interpolationmode  none
attr source  sentPacketToUpperLayer
vector 1805  CAIN.ueD2DTx[23].tcp  tcpRcvQueueBytes  ETV
vector 1792  CAIN.ueD2DTx[23].tcp  "advertised window"  ETV
vector 1791  CAIN.ueD2DTx[23].tcp  "receive window"  ETV
vector 1794  CAIN.ueD2DTx[23].tcp  "sent ack"  ETV
vector 941  CAIN.ueD2DTx[23].nic.pdcpRrc  receivedPacketFromUpperLayer:vector(packetBytes)  ETV
attr interpolationmode  none
attr source  receivedPacketFromUpperLayer
vector 944  CAIN.ueD2DTx[23].nic.pdcpRrc  sentPacketToLowerLayer:vector(packetBytes)  ETV
attr interpolationmode  none
attr source  sentPacketToLowerLayer
vector 945  CAIN.ueD2DTx[23].nic.mac  receivedPacketFromUpperLayer:vector(packetBytes)  ETV
attr interpolationmode  none
attr source  receivedPacketFromUpperLayer
vector 955  CAIN.ueD2DTx[23].nic.mac  CainHopMessageSent:vector  ETV
attr interpolationmode  none
attr title  "# of Sent CAIN hop message, vector"
vector 948  CAIN.ueD2DTx[23].nic.mac  sentPacketToLowerLayer:vector(packetBytes)  ETV
attr interpolationmode  none
attr source  sentPacketToLowerLayer
vector 1829  CAIN.ueD2DTx[18].tcp  tcpRcvQueueBytes  ETV
vector 1816  CAIN.ueD2DTx[18].tcp  "advertised window"  ETV
vector 1815  CAIN.ueD2DTx[18].tcp  "receive window"  ETV
vector 1818  CAIN.ueD2DTx[18].tcp  "sent ack"  ETV
vector 781  CAIN.ueD2DTx[18].nic.pdcpRrc  receivedPacketFromUpperLayer:vector(packetBytes)  ETV
attr interpolationmode  none
attr source  receivedPacketFromUpperLayer
vector 784  CAIN.ueD2DTx[18].nic.pdcpRrc  sentPacketToLowerLayer:vector(packetBytes)  ETV
attr interpolationmode  none
attr source  sentPacketToLowerLayer
vector 785  CAIN.ueD2DTx[18].nic.mac  receivedPacketFromUpperLayer:vector(packetBytes)  ETV
attr interpolationmode  none
attr source  receivedPacketFromUpperLayer
vector 795  CAIN.ueD2DTx[18].nic.mac  CainHopMessageSent:vector  ETV
attr interpolationmode  none
attr title  "# of Sent CAIN hop message, vector"
vector 788  CAIN.ueD2DTx[18].nic.mac  sentPacketToLowerLayer:vector(packetBytes)  ETV
attr interpolationmode  none
attr source  sentPacketToLowerLayer
vector 1853  CAIN.ueD2DTx[14].tcp  tcpRcvQueueBytes  ETV
vector 1840  CAIN.ueD2DTx[14].tcp  "advertised window"  ETV
vector 1839  CAIN.ueD2DTx[14].tcp  "receive window"  ETV
vector 1842  CAIN.ueD2DTx[14].tcp  "sent ack"  ETV
vector 653  CAIN.ueD2DTx[14].nic.pdcpRrc  receivedPacketFromUpperLayer:vector(packetBytes)  ETV
attr interpolationmode  none
attr source  receivedPacketFromUpperLayer
vector 656  CAIN.ueD2DTx[14].nic.pdcpRrc  sentPacketToLowerLayer:vector(packetBytes)  ETV
attr interpolationmode  none
attr source  sentPacketToLowerLayer
vector 657  CAIN.ueD2DTx[14].nic.mac  receivedPacketFromUpperLayer:vector(packetBytes)  ETV
attr interpolationmode  none
attr source  receivedPacketFromUpperLayer
vector 667  CAIN.ueD2DTx[14].nic.mac  CainHopMessageSent:vector  ETV
attr interpolationmode  none
attr title  "# of Sent CAIN hop message, vector"
vector 660  CAIN.ueD2DTx[14].nic.mac  sentPacketToLowerLayer:vector(packetBytes)  ETV
attr interpolationmode  none
attr source  sentPacketToLowerLayer
vector 154  CAIN.eNodeB1.nic.mac  receivedPacketFromLowerLayer:vector(packetBytes)  ETV
attr interpolationmode  none
attr source  receivedPacketFromLowerLayer
vector 1877  CAIN.ueD2DTx[11].tcp  tcpRcvQueueBytes  ETV
vector 1864  CAIN.ueD2DTx[11].tcp  "advertised window"  ETV
vector 1863  CAIN.ueD2DTx[11].tcp  "receive window"  ETV
vector 1866  CAIN.ueD2DTx[11].tcp  "sent ack"  ETV
vector 557  CAIN.ueD2DTx[11].nic.pdcpRrc  receivedPacketFromUpperLayer:vector(packetBytes)  ETV
attr interpolationmode  none
attr source  receivedPacketFromUpperLayer
vector 560  CAIN.ueD2DTx[11].nic.pdcpRrc  sentPacketToLowerLayer:vector(packetBytes)  ETV
attr interpolationmode  none
attr source  sentPacketToLowerLayer
vector 561  CAIN.ueD2DTx[11].nic.mac  receivedPacketFromUpperLayer:vector(packetBytes)  ETV
attr interpolationmode  none
attr source  receivedPacketFromUpperLayer
vector 564  CAIN.ueD2DTx[11].nic.mac  sentPacketToLowerLayer:vector(packetBytes)  ETV
attr interpolationmode  none
attr source  sentPacketToLowerLayer
vector 562  CAIN.ueD2DTx[11].nic.mac  receivedPacketFromLowerLayer:vector(packetBytes)  ETV
attr interpolationmode  none
attr source  receivedPacketFromLowerLayer
vector 563  CAIN.ueD2DTx[11].nic.mac  sentPacketToUpperLayer:vector(packetBytes)  ETV
attr interpolationmode  none
attr source  sentPacketToUpperLayer
vector 1901  CAIN.ueD2DTx[4].tcp  tcpRcvQueueBytes  ETV
vector 1888  CAIN.ueD2DTx[4].tcp  "advertised window"  ETV
vector 1887  CAIN.ueD2DTx[4].tcp  "receive window"  ETV
vector 1890  CAIN.ueD2DTx[4].tcp  "sent ack"  ETV
vector 333  CAIN.ueD2DTx[4].nic.pdcpRrc  receivedPacketFromUpperLayer:vector(packetBytes)  ETV
attr interpolationmode  none
attr source  receivedPacketFromUpperLayer
vector 336  CAIN.ueD2DTx[4].nic.pdcpRrc  sentPacketToLowerLayer:vector(packetBytes)  ETV
attr interpolationmode  none
attr source  sentPacketToLowerLayer
vector 337  CAIN.ueD2DTx[4].nic.mac  receivedPacketFromUpperLayer:vector(packetBytes)  ETV
attr interpolationmode  none
attr source  receivedPacketFromUpperLayer
vector 169  CAIN.eNodeB1.nic.mac  racpkt:vector  ETV
attr interpolationmode  none
attr title  "eNB received racpkt message, vector"
vector 170  CAIN.eNodeB1.nic.mac  racDistanceSignal:vector  ETV
attr interpolationmode  none
attr title  "Rac distance to enb, vector"
vector 171  CAIN.eNodeB1.nic.mac  racServedDevsSignal:vector  ETV
attr interpolationmode  none
attr title  "# of devices served on rac arriavall, vector"
vector 156  CAIN.eNodeB1.nic.mac  sentPacketToLowerLayer:vector(packetBytes)  ETV
attr interpolationmode  none
attr source  sentPacketToLowerLayer
vector 1925  CAIN.ueD2DTx[12].tcp  tcpRcvQueueBytes  ETV
vector 1912  CAIN.ueD2DTx[12].tcp  "advertised window"  ETV
vector 1911  CAIN.ueD2DTx[12].tcp  "receive window"  ETV
vector 1914  CAIN.ueD2DTx[12].tcp  "sent ack"  ETV
vector 589  CAIN.ueD2DTx[12].nic.pdcpRrc  receivedPacketFromUpperLayer:vector(packetBytes)  ETV
attr interpolationmode  none
attr source  receivedPacketFromUpperLayer
vector 592  CAIN.ueD2DTx[12].nic.pdcpRrc  sentPacketToLowerLayer:vector(packetBytes)  ETV
attr interpolationmode  none
attr source  sentPacketToLowerLayer
vector 593  CAIN.ueD2DTx[12].nic.mac  receivedPacketFromUpperLayer:vector(packetBytes)  ETV
attr interpolationmode  none
attr source  receivedPacketFromUpperLayer
vector 596  CAIN.ueD2DTx[12].nic.mac  sentPacketToLowerLayer:vector(packetBytes)  ETV
attr interpolationmode  none
attr source  sentPacketToLowerLayer
vector 1949  CAIN.ueD2DTx[6].tcp  tcpRcvQueueBytes  ETV
vector 1936  CAIN.ueD2DTx[6].tcp  "advertised window"  ETV
vector 1935  CAIN.ueD2DTx[6].tcp  "receive window"  ETV
vector 1938  CAIN.ueD2DTx[6].tcp  "sent ack"  ETV
vector 397  CAIN.ueD2DTx[6].nic.pdcpRrc  receivedPacketFromUpperLayer:vector(packetBytes)  ETV
attr interpolationmode  none
attr source  receivedPacketFromUpperLayer
vector 400  CAIN.ueD2DTx[6].nic.pdcpRrc  sentPacketToLowerLayer:vector(packetBytes)  ETV
attr interpolationmode  none
attr source  sentPacketToLowerLayer
vector 401  CAIN.ueD2DTx[6].nic.mac  receivedPacketFromUpperLayer:vector(packetBytes)  ETV
attr interpolationmode  none
attr source  receivedPacketFromUpperLayer
vector 410  CAIN.ueD2DTx[6].nic.mac  CainMessageSent:vector  ETV
attr interpolationmode  none
attr title  "# of Sent CAIN message, vector"
vector 594  CAIN.ueD2DTx[12].nic.mac  receivedPacketFromLowerLayer:vector(packetBytes)  ETV
attr interpolationmode  none
attr source  receivedPacketFromLowerLayer
vector 1973  CAIN.ueD2DTx[1].tcp  tcpRcvQueueBytes  ETV
vector 1960  CAIN.ueD2DTx[1].tcp  "advertised window"  ETV
vector 1959  CAIN.ueD2DTx[1].tcp  "receive window"  ETV
vector 1962  CAIN.ueD2DTx[1].tcp  "sent ack"  ETV
vector 237  CAIN.ueD2DTx[1].nic.pdcpRrc  receivedPacketFromUpperLayer:vector(packetBytes)  ETV
attr interpolationmode  none
attr source  receivedPacketFromUpperLayer
vector 240  CAIN.ueD2DTx[1].nic.pdcpRrc  sentPacketToLowerLayer:vector(packetBytes)  ETV
attr interpolationmode  none
attr source  sentPacketToLowerLayer
vector 241  CAIN.ueD2DTx[1].nic.mac  receivedPacketFromUpperLayer:vector(packetBytes)  ETV
attr interpolationmode  none
attr source  receivedPacketFromUpperLayer
vector 244  CAIN.ueD2DTx[1].nic.mac  sentPacketToLowerLayer:vector(packetBytes)  ETV
attr interpolationmode  none
attr source  sentPacketToLowerLayer
vector 1997  CAIN.ueD2DTx[15].tcp  tcpRcvQueueBytes  ETV
vector 1984  CAIN.ueD2DTx[15].tcp  "advertised window"  ETV
vector 1983  CAIN.ueD2DTx[15].tcp  "receive window"  ETV
vector 1986  CAIN.ueD2DTx[15].tcp  "sent ack"  ETV
vector 685  CAIN.ueD2DTx[15].nic.pdcpRrc  receivedPacketFromUpperLayer:vector(packetBytes)  ETV
attr interpolationmode  none
attr source  receivedPacketFromUpperLayer
vector 688  CAIN.ueD2DTx[15].nic.pdcpRrc  sentPacketToLowerLayer:vector(packetBytes)  ETV
attr interpolationmode  none
attr source  sentPacketToLowerLayer
vector 689  CAIN.ueD2DTx[15].nic.mac  receivedPacketFromUpperLayer:vector(packetBytes)  ETV
attr interpolationmode  none
attr source  receivedPacketFromUpperLayer
vector 692  CAIN.ueD2DTx[15].nic.mac  sentPacketToLowerLayer:vector(packetBytes)  ETV
attr interpolationmode  none
attr source  sentPacketToLowerLayer
vector 242  CAIN.ueD2DTx[1].nic.mac  receivedPacketFromLowerLayer:vector(packetBytes)  ETV
attr interpolationmode  none
attr source  receivedPacketFromLowerLayer
vector 690  CAIN.ueD2DTx[15].nic.mac  receivedPacketFromLowerLayer:vector(packetBytes)  ETV
attr interpolationmode  none
attr source  receivedPacketFromLowerLayer
vector 2021  CAIN.ueD2DTx[2].tcp  tcpRcvQueueBytes  ETV
vector 2008  CAIN.ueD2DTx[2].tcp  "advertised window"  ETV
vector 2007  CAIN.ueD2DTx[2].tcp  "receive window"  ETV
vector 2010  CAIN.ueD2DTx[2].tcp  "sent ack"  ETV
vector 269  CAIN.ueD2DTx[2].nic.pdcpRrc  receivedPacketFromUpperLayer:vector(packetBytes)  ETV
attr interpolationmode  none
attr source  receivedPacketFromUpperLayer
vector 272  CAIN.ueD2DTx[2].nic.pdcpRrc  sentPacketToLowerLayer:vector(packetBytes)  ETV
attr interpolationmode  none
attr source  sentPacketToLowerLayer
vector 273  CAIN.ueD2DTx[2].nic.mac  receivedPacketFromUpperLayer:vector(packetBytes)  ETV
attr interpolationmode  none
attr source  receivedPacketFromUpperLayer
vector 2045  CAIN.ueD2DTx[19].tcp  tcpRcvQueueBytes  ETV
vector 2032  CAIN.ueD2DTx[19].tcp  "advertised window"  ETV
vector 2031  CAIN.ueD2DTx[19].tcp  "receive window"  ETV
vector 2034  CAIN.ueD2DTx[19].tcp  "sent ack"  ETV
vector 813  CAIN.ueD2DTx[19].nic.pdcpRrc  receivedPacketFromUpperLayer:vector(packetBytes)  ETV
attr interpolationmode  none
attr source  receivedPacketFromUpperLayer
vector 816  CAIN.ueD2DTx[19].nic.pdcpRrc  sentPacketToLowerLayer:vector(packetBytes)  ETV
attr interpolationmode  none
attr source  sentPacketToLowerLayer
vector 817  CAIN.ueD2DTx[19].nic.mac  receivedPacketFromUpperLayer:vector(packetBytes)  ETV
attr interpolationmode  none
attr source  receivedPacketFromUpperLayer
vector 691  CAIN.ueD2DTx[15].nic.mac  sentPacketToUpperLayer:vector(packetBytes)  ETV
attr interpolationmode  none
attr source  sentPacketToUpperLayer
vector 820  CAIN.ueD2DTx[19].nic.mac  sentPacketToLowerLayer:vector(packetBytes)  ETV
attr interpolationmode  none
attr source  sentPacketToLowerLayer
vector 818  CAIN.ueD2DTx[19].nic.mac  receivedPacketFromLowerLayer:vector(packetBytes)  ETV
attr interpolationmode  none
attr source  receivedPacketFromLowerLayer
vector 920  CAIN.ueD2DTx[22].nic.mac  DropedCainMessage:vector  ETV
attr interpolationmode  none
attr title  "Droped CAIN message due to RB not available, vector"
vector 819  CAIN.ueD2DTx[19].nic.mac  sentPacketToUpperLayer:vector(packetBytes)  ETV
attr interpolationmode  none
attr source  sentPacketToUpperLayer
vector 2069  CAIN.ueD2DTx[3].tcp  tcpRcvQueueBytes  ETV
vector 2056  CAIN.ueD2DTx[3].tcp  "advertised window"  ETV
vector 2055  CAIN.ueD2DTx[3].tcp  "receive window"  ETV
vector 2058  CAIN.ueD2DTx[3].tcp  "sent ack"  ETV
vector 301  CAIN.ueD2DTx[3].nic.pdcpRrc  receivedPacketFromUpperLayer:vector(packetBytes)  ETV
attr interpolationmode  none
attr source  receivedPacketFromUpperLayer
vector 304  CAIN.ueD2DTx[3].nic.pdcpRrc  sentPacketToLowerLayer:vector(packetBytes)  ETV
attr interpolationmode  none
attr source  sentPacketToLowerLayer
vector 305  CAIN.ueD2DTx[3].nic.mac  receivedPacketFromUpperLayer:vector(packetBytes)  ETV
attr interpolationmode  none
attr source  receivedPacketFromUpperLayer
vector 315  CAIN.ueD2DTx[3].nic.mac  CainHopMessageSent:vector  ETV
attr interpolationmode  none
attr title  "# of Sent CAIN hop message, vector"
vector 308  CAIN.ueD2DTx[3].nic.mac  sentPacketToLowerLayer:vector(packetBytes)  ETV
attr interpolationmode  none
attr source  sentPacketToLowerLayer
vector 754  CAIN.ueD2DTx[17].nic.mac  receivedPacketFromLowerLayer:vector(packetBytes)  ETV
attr interpolationmode  none
attr source  receivedPacketFromLowerLayer
vector 755  CAIN.ueD2DTx[17].nic.mac  sentPacketToUpperLayer:vector(packetBytes)  ETV
attr interpolationmode  none
attr source  sentPacketToUpperLayer
vector 218  CAIN.ueD2DTx[0].nic.mac  CainMessageSent:vector  ETV
attr interpolationmode  none
attr title  "# of Sent CAIN message, vector"
vector 890  CAIN.ueD2DTx[21].nic.mac  CainMessageSent:vector  ETV
attr interpolationmode  none
attr title  "# of Sent CAIN message, vector"
vector 786  CAIN.ueD2DTx[18].nic.mac  receivedPacketFromLowerLayer:vector(packetBytes)  ETV
attr interpolationmode  none
attr source  receivedPacketFromLowerLayer
vector 787  CAIN.ueD2DTx[18].nic.mac  sentPacketToUpperLayer:vector(packetBytes)  ETV
attr interpolationmode  none
attr source  sentPacketToUpperLayer
vector 339  CAIN.ueD2DTx[4].nic.mac  sentPacketToUpperLayer:vector(packetBytes)  ETV
attr interpolationmode  none
attr source  sentPacketToUpperLayer
vector 243  CAIN.ueD2DTx[1].nic.mac  sentPacketToUpperLayer:vector(packetBytes)  ETV
attr interpolationmode  none
attr source  sentPacketToUpperLayer
vector 275  CAIN.ueD2DTx[2].nic.mac  sentPacketToUpperLayer:vector(packetBytes)  ETV
attr interpolationmode  none
attr source  sentPacketToUpperLayer
vector 595  CAIN.ueD2DTx[12].nic.mac  sentPacketToUpperLayer:vector(packetBytes)  ETV
attr interpolationmode  none
attr source  sentPacketToUpperLayer
vector 634  CAIN.ueD2DTx[13].nic.mac  CainMessageSent:vector  ETV
attr interpolationmode  none
attr title  "# of Sent CAIN message, vector"
vector 370  CAIN.ueD2DTx[5].nic.mac  receivedPacketFromLowerLayer:vector(packetBytes)  ETV
attr interpolationmode  none
attr source  receivedPacketFromLowerLayer
vector 371  CAIN.ueD2DTx[5].nic.mac  sentPacketToUpperLayer:vector(packetBytes)  ETV
attr interpolationmode  none
attr source  sentPacketToUpperLayer
vector 282  CAIN.ueD2DTx[2].nic.mac  CainMessageSent:vector  ETV
attr interpolationmode  none
attr title  "# of Sent CAIN message, vector"
vector 986  CAIN.ueD2DTx[24].nic.mac  CainMessageSent:vector  ETV
attr interpolationmode  none
attr title  "# of Sent CAIN message, vector"
1268	57153 24 175 175 0.0000001228 0.0000001228 1 0 0 0 0
1379	57177 28 260 260 0.0000006304 0.0000006304 1 65535 65535 65535 4294836225
1380	57205 27 260 260 0.0000006304 0.0000006304 1 8940 8940 8940 79923600
1381	57232 29 260 260 0.0000006304 0.0000006304 1 0.3725 0.3725 0.3725 0.13875625
1377	57261 24 260 260 0.0000006304 0.0000006304 1 3 3 3 9
1384	57285 24 260 260 0.0000006304 0.0000006304 1 1 1 1 1
1396	57309 24 188 188 0.0000003096 0.0000003096 1 0 0 0 0
1352	57333 28 260 260 0.0000006304 0.0000006304 1 65535 65535 65535 4294836225
1353	57361 27 260 260 0.0000006304 0.0000006304 1 8940 8940 8940 79923600
1354	57388 29 260 260 0.0000006304 0.0000006304 1 0.3725 0.3725 0.3725 0.13875625
1350	57417 24 260 260 0.0000006304 0.0000006304 1 3 3 3 9
1357	57441 24 260 260 0.0000006304 0.0000006304 1 1 1 1 1
1369	57465 24 188 188 0.0000003096 0.0000003096 1 0 0 0 0
1070	57489 28 260 260 0.0000006304 0.0000006304 1 65535 65535 65535 4294836225
1071	57517 27 260 260 0.0000006304 0.0000006304 1 8940 8940 8940 79923600
1072	57544 29 260 260 0.0000006304 0.0000006304 1 0.3725 0.3725 0.3725 0.13875625
1068	57573 48 260 327 0.0000006304 0.0000008564 2 1 3 4 10
1069	57621 31 327 327 0.0000008564 0.0000008564 1 2.26e-07 2.26e-07 2.26e-07 5.1076e-14
1074	57652 2080 4098 21102 0.0570000972 0.2570015836 72 2000 2071 146556 298345836
1077	59732 46 232 246 0.000000552 0.000000596 2 1 2 3 5
1076	59778 46 232 246 0.000000552 0.000000596 2 1 2 3 5
1078	59824 48 327 333 0.0000008564 0.0000009004 2 1 2 3 5
1087	59872 13 156 156 0 0 1 0 0 0 0
1046	59885 89 4098 37540 0.0570000972 0.4570015836 3 65533 65535 196603 12884246539
1050	59974 1944 4098 37540 0.0570000972 0.4570015836 75 0 128 146 16588
1055	61918 77 4098 37540 0.0570000972 0.4570015836 3 0 0 0 0
1056	61995 77 4098 37540 0.0570000972 0.4570015836 3 0 0 0 0
1057	62072 77 4098 37540 0.0570000972 0.4570015836 3 0 0 0 0
1058	62149 77 4098 37540 0.0570000972 0.4570015836 3 0 0 0 0
1059	62226 77 4098 37540 0.0570000972 0.4570015836 3 0 0 0 0
1060	62303 77 4098 37540 0.0570000972 0.4570015836 3 0 0 0 0
1061	62380 77 4098 37540 0.0570000972 0.4570015836 3 0 0 0 0
1062	62457 80 4098 37540 0.0570000972 0.4570015836 3 16 16 48 768
1064	62537 28 188 188 0.0000003096 0.0000003096 1 65535 65535 65535 4294836225
1066	62565 2503 4101 21167 0.0570000972 0.2570015836 72 9.72e-08 1.1052e-06 7.21824e-05 7.844462208e-11
1067	65068 13 156 156 0 0 1 0 0 0 0
1298	65081 27 203 203 0.000000458 0.000000458 1 65535 65535 65535 4294836225
1299	65108 26 203 203 0.000000458 0.000000458 1 8940 8940 8940 79923600
1300	65134 28 203 203 0.000000458 0.000000458 1 0.3725 0.3725 0.3725 0.13875625
1296	65162 23 203 203 0.000000458 0.000000458 1 3 3 3 9
1303	65185 23 203 203 0.000000458 0.000000458 1 1 1 1 1
1311	65208 76 729 33513 0.0070001912 0.4070016776 3 0 0 0 0
1312	65284 76 729 33513 0.0070001912 0.4070016776 3 0 0 0 0
1313	65360 76 729 33513 0.0070001912 0.4070016776 3 0 0 0 0
1315	65436 24 175 175 0.0000001228 0.0000001228 1 0 0 0 0
1271	65460 27 203 203 0.000000458 0.000000458 1 65535 65535 65535 4294836225
1272	65487 26 203 203 0.000000458 0.000000458 1 8940 8940 8940 79923600
1273	65513 28 203 203 0.000000458 0.000000458 1 0.3725 0.3725 0.3725 0.13875625
1269	65541 23 203 203 0.000000458 0.000000458 1 3 3 3 9
1276	65564 23 203 203 0.000000458 0.000000458 1 1 1 1 1
1284	65587 76 729 33513 0.0070001912 0.4070016776 3 0 0 0 0
1285	65663 76 729 33513 0.0070001912 0.4070016776 3 0 0 0 0
1286	65739 76 729 33513 0.0070001912 0.4070016776 3 0 0 0 0
1288	65815 24 175 175 0.0000001228 0.0000001228 1 0 0 0 0
1325	65839 57 203 97925 0.000000458 1.2070004784 2 65535 65535 131070 8589672450
1326	65896 55 203 97925 0.000000458 1.2070004784 2 8940 8940 17880 159847200
1327	65951 58 203 97925 0.000000458 1.2070004784 2 0.3725 23.84 24.2125 568.48435625
1323	66009 123 203 33513 0.000000458 0.4070016776 5 1 3 7 13
1324	66132 138 280 33513 0.0000006744 0.4070016776 4 1.912e-07 0.2000011992 0.400001894 0.080000594561604
1328	66270 2065 674 16784 0.007 0.2070004784 72 2000 2071 146556 298345836
1332	68335 48 298 312 0.0000007624 0.0000008064 2 1 2 3 5
1331	68383 48 298 312 0.0000007624 0.0000008064 2 1 2 3 5
1333	68431 48 280 290 0.0000006744 0.0000007184 2 1 2 3 5
1334	68479 3872 674 33513 0.007 0.4070016776 144 0 128 8292 700064
1335	72351 3872 674 33513 0.007 0.4070016776 144 0 128 8292 700064
1338	76223 76 729 33513 0.0070001912 0.4070016776 3 0 0 0 0
1339	76299 76 729 33513 0.0070001912 0.4070016776 3 0 0 0 0
1340	76375 76 729 33513 0.0070001912 0.4070016776 3 0 0 0 0
1341	76451 76 729 33513 0.0070001912 0.4070016776 3 0 0 0 0
1342	76527 24 175 175 0.0000001228 0.0000001228 1 0 0 0 0
1345	76551 85 729 33513 0.0070001912 0.4070016776 3 2000 2071 6078 12317090
1347	76636 76 729 33513 0.0070001912 0.4070016776 3 0 0 0 0
1348	76712 76 729 33513 0.0070001912 0.4070016776 3 0 0 0 0
1464	76788 76 729 33513 0.0070001912 0.4070016776 3 0 0 0 0
1465	76864 3246 674 16784 0.007 0.2070004784 144 0 64 4146 175016
1008	80110 3872 674 33513 0.007 0.4070016776 144 0 128 8292 700064
1007	83982 3872 674 33513 0.007 0.4070016776 144 0 128 8292 700064
1009	87854 76 729 33513 0.0070001912 0.4070016776 3 0 0 0 0
1010	87930 76 729 33513 0.0070001912 0.4070016776 3 0 0 0 0
1019	88006 88 729 33513 0.0070001912 0.4070016776 3 65533 65535 196603 12884246539
1020	88094 116 175 33513 0.0000001228 0.4070016776 4 65533 65535 262138 17179082764
1023	88210 13 148 148 0 0 1 0 0 0 0
1165	88223 24 174 174 0.0000001228 0.0000001228 1 0 0 0 0
1433	88247 28 261 261 0.0000006304 0.0000006304 1 65535 65535 65535 4294836225
1434	88275 27 261 261 0.0000006304 0.0000006304 1 8940 8940 8940 79923600
1435	88302 29 261 261 0.0000006304 0.0000006304 1 0.3725 0.3725 0.3725 0.13875625
1431	88331 24 261 261 0.0000006304 0.0000006304 1 3 3 3 9
1438	88355 24 261 261 0.0000006304 0.0000006304 1 1 1 1 1
1450	88379 24 189 189 0.0000003096 0.0000003096 1 0 0 0 0
1406	88403 28 261 261 0.0000006304 0.0000006304 1 65535 65535 65535 4294836225
1407	88431 27 261 261 0.0000006304 0.0000006304 1 8940 8940 8940 79923600
1408	88458 29 261 261 0.0000006304 0.0000006304 1 0.3725 0.3725 0.3725 0.13875625
1404	88487 24 261 261 0.0000006304 0.0000006304 1 3 3 3 9
1411	88511 24 261 261 0.0000006304 0.0000006304 1 1 1 1 1
1423	88535 24 189 189 0.0000003096 0.0000003096 1 0 0 0 0
1119	88559 28 261 261 0.0000006304 0.0000006304 1 65535 65535 65535 4294836225
1120	88587 27 261 261 0.0000006304 0.0000006304 1 8940 8940 8940 79923600
1121	88614 29 261 261 0.0000006304 0.0000006304 1 0.3725 0.3725 0.3725 0.13875625
1117	88643 48 261 326 0.0000006304 0.0000008564 2 1 3 4 10
1118	88691 31 326 326 0.0000008564 0.0000008564 1 2.26e-07 2.26e-07 2.26e-07 5.1076e-14
1123	88722 2072 717 16791 0.0070000972 0.2070015836 72 2000 2071 146556 298345836
1126	90794 46 233 247 0.000000552 0.000000596 2 1 2 3 5
1125	90840 46 233 247 0.000000552 0.000000596 2 1 2 3 5
1127	90886 48 326 332 0.0000008564 0.0000009004 2 1 2 3 5
1136	90934 13 157 157 0 0 1 0 0 0 0
1095	90947 88 717 33506 0.0070000972 0.4070015836 3 65533 65535 196603 12884246539
1099	91035 1935 717 33506 0.0070000972 0.4070015836 75 0 128 146 16588
1104	92970 76 717 33506 0.0070000972 0.4070015836 3 0 0 0 0
1105	93046 76 717 33506 0.0070000972 0.4070015836 3 0 0 0 0
1106	93122 76 717 33506 0.0070000972 0.4070015836 3 0 0 0 0
1107	93198 76 717 33506 0.0070000972 0.4070015836 3 0 0 0 0
1108	93274 76 717 33506 0.0070000972 0.4070015836 3 0 0 0 0
1109	93350 76 717 33506 0.0070000972 0.4070015836 3 0 0 0 0
1110	93426 76 717 33506 0.0070000972 0.4070015836 3 0 0 0 0
1111	93502 79 717 33506 0.0070000972 0.4070015836 3 16 16 48 768
1113	93581 28 189 189 0.0000003096 0.0000003096 1 65535 65535 65535 4294836225
1115	93609 2495 720 16856 0.0070000972 0.2070015836 72 9.72e-08 1.1052e-06 7.21824e-05 7.844462208e-11
1116	96104 13 157 157 0 0 1 0 0 0 0
1195	96117 27 202 202 0.000000458 0.000000458 1 65535 65535 65535 4294836225
1196	96144 26 202 202 0.000000458 0.000000458 1 8940 8940 8940 79923600
1197	96170 28 202 202 0.000000458 0.000000458 1 0.3725 0.3725 0.3725 0.13875625
1193	96198 23 202 202 0.000000458 0.000000458 1 3 3 3 9
1200	96221 23 202 202 0.000000458 0.000000458 1 1 1 1 1
1208	96244 77 4110 37547 0.0570001912 0.4570016776 3 0 0 0 0
1209	96321 77 4110 37547 0.0570001912 0.4570016776 3 0 0 0 0
1210	96398 77 4110 37547 0.0570001912 0.4570016776 3 0 0 0 0
1212	96475 24 174 174 0.0000001228 0.0000001228 1 0 0 0 0
1168	96499 27 202 202 0.000000458 0.000000458 1 65535 65535 65535 4294836225
1169	96526 26 202 202 0.000000458 0.000000458 1 8940 8940 8940 79923600
1170	96552 28 202 202 0.000000458 0.000000458 1 0.3725 0.3725 0.3725 0.13875625
1166	96580 23 202 202 0.000000458 0.000000458 1 3 3 3 9
1173	96603 23 202 202 0.000000458 0.000000458 1 1 1 1 1
1181	96626 77 4110 37547 0.0570001912 0.4570016776 3 0 0 0 0
1182	96703 77 4110 37547 0.0570001912 0.4570016776 3 0 0 0 0
1183	96780 77 4110 37547 0.0570001912 0.4570016776 3 0 0 0 0
1185	96857 24 174 174 0.0000001228 0.0000001228 1 0 0 0 0
1222	96881 58 202 101969 0.000000458 1.2570004784 2 65535 65535 131070 8589672450
1223	96939 56 202 101969 0.000000458 1.2570004784 2 8940 8940 17880 159847200
1224	96995 59 202 101969 0.000000458 1.2570004784 2 0.3725 23.84 24.2125 568.48435625
1220	97054 124 202 37547 0.000000458 0.4570016776 5 1 3 7 13
1221	97178 139 281 37547 0.0000006744 0.4570016776 4 1.912e-07 0.2000011992 0.400001894 0.080000594561604
1225	97317 2073 4034 21095 0.057 0.2570004784 72 2000 2071 146556 298345836
1229	99390 48 299 313 0.0000007624 0.0000008064 2 1 2 3 5
1228	99438 48 299 313 0.0000007624 0.0000008064 2 1 2 3 5
1230	99486 48 281 291 0.0000006744 0.0000007184 2 1 2 3 5
1231	99534 3881 4034 37547 0.057 0.4570016776 144 0 128 8292 700064
1232	103415 3881 4034 37547 0.057 0.4570016776 144 0 128 8292 700064
1235	107296 77 4110 37547 0.0570001912 0.4570016776 3 0 0 0 0
1236	107373 77 4110 37547 0.0570001912 0.4570016776 3 0 0 0 0
1237	107450 77 4110 37547 0.0570001912 0.4570016776 3 0 0 0 0
1238	107527 77 4110 37547 0.0570001912 0.4570016776 3 0 0 0 0
1239	107604 24 174 174 0.0000001228 0.0000001228 1 0 0 0 0
1242	107628 86 4110 37547 0.0570001912 0.4570016776 3 2000 2071 6078 12317090
1244	107714 77 4110 37547 0.0570001912 0.4570016776 3 0 0 0 0
1245	107791 77 4110 37547 0.0570001912 0.4570016776 3 0 0 0 0
1460	107868 77 4110 37547 0.0570001912 0.4570016776 3 0 0 0 0
1461	107945 3262 4034 21095 0.057 0.2570004784 144 0 64 4146 175016
1030	111207 3881 4034 37547 0.057 0.4570016776 144 0 128 8292 700064
1029	115088 3881 4034 37547 0.057 0.4570016776 144 0 128 8292 700064
1031	118969 77 4110 37547 0.0570001912 0.4570016776 3 0 0 0 0
1032	119046 77 4110 37547 0.0570001912 0.4570016776 3 0 0 0 0
1041	119123 89 4110 37547 0.0570001912 0.4570016776 3 65533 65535 196603 12884246539
1042	119212 117 174 37547 0.0000001228 0.4570016776 4 65533 65535 262138 17179082764
1045	119329 13 153 153 0 0 1 0 0 0 0
8	119342 8 0 0 0 0 1 0 0 0 0
9	119350 8 0 0 0 0 1 0 0 0 0
24	119358 9 0 0 0 0 1 0 0 0 0
25	119367 9 0 0 0 0 1 0 0 0 0
35	119376 9 0 0 0 0 1 0 0 0 0
36	119385 9 0 0 0 0 1 0 0 0 0
56	119394 9 0 0 0 0 1 0 0 0 0
57	119403 9 0 0 0 0 1 0 0 0 0
67	119412 9 0 0 0 0 1 0 0 0 0
68	119421 9 0 0 0 0 1 0 0 0 0
78	119430 9 0 0 0 0 1 0 0 0 0
79	119439 9 0 0 0 0 1 0 0 0 0
96	119448 1214714 418 832140 0.002 10 68537 0 0 0 0
98	1334162 464103 1254 832140 0.017 10 26239 0 0 0 0
100	1798265 101625 2392 832137 0.035 10 4763 1 4763 11345466 36029418194
101	1899890 271145 1254 832140 0.017 10 12428 1 12428 77233806 639933571914
106	2171035 709984 1254 832140 0.017 10 34327 96 649 15060708 7267065024
108	2881019 89822 4089 831992 0.057 9.998 4753 1 7 20774 103258
109	2970841 245941 2577 832061 0.037 9.999 12383 8 14 173289 2425195
111	3216782 859506 1254 832140 0.017 10 38220 1 38220 730403310 18610919806570
112	4076288 792196 1254 832140 0.017 10 38220 60 343 8484968 2016059080
113	4868484 717732 1254 832140 0.017 10 38220 0 0 0 0
115	5586216 39118 1599 831980 0.023 9.998 1970 2 15 29254 435964
120	5625334 10 0 0 0 0 1 0 0 0 0
121	5625344 10 0 0 0 0 1 0 0 0 0
128	5625354 421 164 37542 0 0.4570015836 18 36 1312 2464 1827680
130	5625775 438 164 37542 0 0.4570015836 18 0 8.8e-08 3.088e-07 1.946112e-14
131	5626213 280 0 283 0 0.0000007124 13 0 2 10 14
132	5626493 828 0 37544 0 0.4570016276 37 0 1 18 18
133	5627321 423 166 37543 0 0.4570015836 18 43 1319 2590 1863058
134	5627744 442 171 33511 0.0000001228 0.4070016776 18 43 1319 2590 1863058
137	5628186 423 166 37543 0 0.4570015836 18 36 1312 2464 1827680
138	5628609 442 171 33511 0.0000001228 0.4070016776 18 36 1312 2464 1827680
141	5629051 1792 4103 21294 0.0570000972 0.2570015836 72 2 2 144 288
154	5630843 302595 4485 832123 0.062 10 16236 0 0 0 0
156	5933438 85142 5903 832123 0.078 10 4549 0 0 0 0
169	6018580 63180 5903 832123 0.078 10 2980 1 2980 4441690 8825638030
170	6081760 61307 5903 832123 0.078 10 2980 237 616 1579927 848349513
171	6143067 55347 5903 832123 0.078 10 2980 0 0 0 0
178	6198414 10 0 0 0 0 1 0 0 0 0
179	6198424 10 0 0 0 0 1 0 0 0 0
186	6198434 422 165 33508 0 0.4070015836 18 36 1312 2464 1827680
188	6198856 439 165 33508 0 0.4070015836 18 0 8.8e-08 3.088e-07 1.946112e-14
189	6199295 280 0 282 0 0.0000007124 13 0 2 10 14
190	6199575 830 0 33510 0 0.4070016276 37 0 1 18 18
191	6200405 424 167 33509 0 0.4070015836 18 43 1319 2590 1863058
192	6200829 441 170 37545 0.0000001228 0.4570016776 18 43 1319 2590 1863058
195	6201270 424 167 33509 0 0.4070015836 18 36 1312 2464 1827680
196	6201694 441 170 37545 0.0000001228 0.4570016776 18 36 1312 2464 1827680
199	6202135 1784 722 16983 0.0070000972 0.2070015836 72 2 2 144 288
205	6203919 85 2299 749179 0.033984720812 9.033984720812 3 44 44 132 5808
208	6204004 85 2299 749179 0.033984720812 9.033984720812 3 45 45 135 6075
209	6204089 85 2302 749182 0.033984720812 9.033984720812 3 45 45 135 6075
212	6204174 26571 2305 831999 0.034 9.999 1399 0 0 0 0
218	6230745 29561 242501 831999 3.034 9.999 1394 1 1394 972315 903928845
219	6260306 85 2305 3737 0.034 0.054 5 1 5 15 55
231	6260391 163 0 8379 0 0.105 10 1 2 19 37
237	6260554 85 6788 753949 0.087465974346 9.087465974346 3 44 44 132 5808
240	6260639 85 6788 753949 0.087465974346 9.087465974346 3 45 45 135 6075
241	6260724 165 6791 754866 0.087465974346 9.097 7 19 45 233 8597
242	6260889 9736 6996 832114 0.09 10 528 0 0 0 0
243	6270625 76 247715 754862 3.092 9.097 4 0 0 0 0
244	6270701 9663 6795 832114 0.088 10 524 0 0 0 0
263	6280364 163 0 8380 0 0.105 10 1 2 19 37
269	6280527 85 7347 754548 0.093058322349 9.093058322349 3 44 44 132 5808
272	6280612 85 7347 754548 0.093058322349 9.093058322349 3 45 45 135 6075
273	6280697 1911 7350 754551 0.093058322349 9.093058322349 99 0 45 186 6672
274	6282608 18538 1190 616893 0.015 7.406 978 0 0 0 0
275	6301146 1824 249332 609658 3.108 7.318 96 0 0 0 0
276	6302970 26575 1190 832002 0.015 9.999 1401 0 0 0 0
282	6329545 10791 617045 832002 7.409 9.999 519 1 519 134940 46734220
295	6340336 163 0 8381 0 0.105 10 1 2 19 37
301	6340499 85 7819 755076 0.098821217397 9.098821217397 3 44 44 132 5808
304	6340584 85 7819 755076 0.098821217397 9.098821217397 3 45 45 135 6075
305	6340669 85 7822 755079 0.098821217397 9.098821217397 3 45 45 135 6075
308	6340754 37406 7861 832004 0.099 9.999 1981 0 0 0 0
315	6378160 42242 7861 832004 0.099 9.999 1981 1 1981 1963171 2593348891
327	6420402 10 0 0 0 0 1 1 1 1 1
333	6420412 85 5773 752893 0.076266208328 9.076266208328 3 44 44 132 5808
336	6420497 85 5773 752893 0.076266208328 9.076266208328 3 45 45 135 6075
337	6420582 655 5776 759792 0.076266208328 9.151 33 5 45 285 6825
338	6421237 1700 1222 759717 0.016 9.15 94 0 0 0 0
339	6422937 570 246682 759788 3.081 9.151 30 0 0 0 0
340	6423507 893 1222 759465 0.016 9.147 49 0 0 0 0
345	6424400 261 1320 4009 0.018 0.056 15 1 15 120 1240
359	6424661 163 0 8382 0 0.105 10 1 2 19 37
365	6424824 85 2137 748965 0.031389955268 9.031389955268 3 44 44 132 5808
368	6424909 85 2137 748965 0.031389955268 9.031389955268 3 45 45 135 6075
369	6424994 1533 2140 824943 0.031389955268 9.916 79 0 45 258 7416
370	6426527 73473 519128 832045 6.209 9.999 3869 0 0 0 0
371	6500000 1444 519279 824939 6.211 9.916 76 0 0 0 0
372	6501444 95272 2149 832039 0.032 9.999 5028 0 0 0 0
379	6596716 25803 2149 518535 0.032 6.202 1235 1 1235 763230 628647110
391	6622519 10 0 0 0 0 1 1 1 1 1
397	6622529 85 6371 753531 0.083256449993 9.083256449993 3 44 44 132 5808
400	6622614 85 6371 753531 0.083256449993 9.083256449993 3 45 45 135 6075
401	6622699 85 6374 753534 0.083256449993 9.083256449993 3 45 45 135 6075
402	6622784 185486 1564 832126 0.022 10 9945 0 0 0 0
404	6808270 222943 1564 832126 0.022 10 11929 0 0 0 0
410	7031213 42302 6409 832008 0.084 9.999 1984 1 1984 1969120 2605145760
423	7073515 10 0 0 0 0 1 1 1 1 1
429	7073525 85 1978 748778 0.029577355213 9.029577355213 3 44 44 132 5808
432	7073610 85 1978 748778 0.029577355213 9.029577355213 3 45 45 135 6075
433	7073695 161 1981 749200 0.029577355213 9.034 7 24 47 278 11694
434	7073856 46558 2231 749150 0.032 9.033 2478 0 0 0 0
435	7120414 72 2313 749196 0.034 9.034 4 0 0 0 0
436	7120486 46483 2017 748817 0.03 9.03 2474 0 0 0 0
455	7166969 10 0 0 0 0 1 1 1 1 1
461	7166979 85 1493 748084 0.020429364846 9.020429364846 3 44 44 132 5808
464	7167064 85 1493 748084 0.020429364846 9.020429364846 3 45 45 135 6075
465	7167149 85 1496 748087 0.020429364846 9.020429364846 3 45 45 135 6075
468	7167234 37660 1507 831724 0.021 9.996 1996 0 0 0 0
475	7204894 42541 1507 831724 0.021 9.996 1996 1 1996 1993006 2652690986
487	7247435 10 0 0 0 0 1 1 1 1 1
493	7247445 85 1610 748273 0.023409340573 9.023409340573 3 44 44 132 5808
496	7247530 85 1610 748273 0.023409340573 9.023409340573 3 45 45 135 6075
497	7247615 143 1613 748663 0.023409340573 9.028 6 45 47 276 12702
498	7247758 110 1851 748624 0.026 9.027 6 0 0 0 0
499	7247868 55 1907 748659 0.028 9.028 3 0 0 0 0
500	7247923 55 1650 748317 0.024 9.024 3 0 0 0 0
519	7247978 10 0 0 0 0 1 1 1 1 1
525	7247988 85 2239 749101 0.032763117831 9.032763117831 3 44 44 132 5808
528	7248073 85 2239 749101 0.032763117831 9.032763117831 3 45 45 135 6075
529	7248158 85 2242 749104 0.032763117831 9.032763117831 3 45 45 135 6075
530	7248243 46413 2286 518718 0.033 6.204 2470 0 0 0 0
532	7294656 84039 2263 831875 0.033 9.998 4464 0 0 0 0
538	7378695 42501 2263 831875 0.033 9.998 1994 1 1994 1989015 2644726945
551	7421196 10 0 0 0 0 1 1 1 1 1
557	7421206 85 4580 751665 0.062601716756 9.062601716756 3 44 44 132 5808
560	7421291 85 4580 751665 0.062601716756 9.062601716756 3 45 45 135 6075
561	7421376 642 4583 756792 0.062601716756 9.117 33 0 47 282 10706
562	7422018 2094 4780 832042 0.065 9.999 113 0 0 0 0
563	7424112 552 4925 756788 0.067 9.117 30 0 0 0 0
564	7424664 1559 4630 832042 0.063 9.999 83 0 0 0 0
583	7426223 10 0 0 0 0 1 1 1 1 1
589	7426233 85 6302 753449 0.082919128996 9.082919128996 3 44 44 132 5808
592	7426318 85 6302 753449 0.082919128996 9.082919128996 3 45 45 135 6075
593	7426403 847 6305 828456 0.082919128996 9.957 43 0 45 192 6708
594	7427250 13299 6537 832132 0.085 10 720 0 0 0 0
595	7440549 760 375906 828452 4.547 9.957 40 0 0 0 0
596	7441309 12918 6322 831878 0.083 9.998 680 0 0 0 0
615	7454227 163 0 8383 0 0.105 10 1 2 19 37
621	7454390 82 2247 749108 0.03277608233 9.03277608233 3 44 44 132 5808
624	7454472 82 2247 749108 0.03277608233 9.03277608233 3 45 45 135 6075
625	7454554 82 2250 749111 0.03277608233 9.03277608233 3 45 45 135 6075
628	7454636 37626 2267 831880 0.033 9.998 1994 0 0 0 0
634	7492262 15831 519043 831880 6.208 9.998 759 1 759 288420 146036660
635	7508093 25803 2267 518606 0.033 6.203 1235 1 1235 763230 628647110
647	7533896 10 0 0 0 0 1 1 1 1 1
653	7533906 85 4359 751429 0.060278170027 9.060278170027 3 44 44 132 5808
656	7533991 85 4359 751429 0.060278170027 9.060278170027 3 45 45 135 6075
657	7534076 85 4362 751432 0.060278170027 9.060278170027 3 45 45 135 6075
660	7534161 37524 4407 831731 0.061 9.996 1988 0 0 0 0
667	7571685 42381 4407 831731 0.061 9.996 1988 1 1988 1977066 2620930494
679	7614066 10 0 0 0 0 1 1 1 1 1
685	7614076 85 6923 754108 0.089455451544 9.089455451544 3 44 44 132 5808
688	7614161 85 6923 754108 0.089455451544 9.089455451544 3 45 45 135 6075
689	7614246 201 6926 755107 0.089455451544 9.099 9 19 45 282 9858
690	7614447 220 7231 755045 0.092 9.098 12 0 0 0 0
691	7614667 110 7379 755103 0.094 9.099 6 0 0 0 0
692	7614777 107 6971 754661 0.09 9.095 6 0 0 0 0
711	7614884 10 0 0 0 0 1 1 1 1 1
717	7614894 85 3594 750664 0.051714848483 9.051714848483 3 44 44 132 5808
720	7614979 85 3594 750664 0.051714848483 9.051714848483 3 45 45 135 6075
721	7615064 19846 3597 831738 0.051714848483 9.996 1056 0 45 247 7477
722	7634910 131498 2340 832109 0.034 10 7069 0 0 0 0
723	7766408 19757 3920 831734 0.056 9.996 1053 0 0 0 0
724	7786165 112174 2340 831822 0.034 9.997 6007 0 0 0 0
728	7898339 68 2472 3579 0.036 0.051 4 1 4 10 30
729	7898407 68 2575 3645 0.037 0.052 4 1 4 10 30
743	7898475 10 0 0 0 0 1 1 1 1 1
749	7898485 85 1075 747446 0.013945144669 9.013945144669 3 44 44 132 5808
752	7898570 85 1075 747446 0.013945144669 9.013945144669 3 45 45 135 6075
753	7898655 26628 1078 831889 0.013945144669 9.998 1400 0 45 135 6075
754	7925283 105240 241015 832111 3.016 10 5580 0 0 0 0
755	8030523 26543 241149 831885 3.018 9.998 1397 0 0 0 0
756	8057066 78869 1098 832111 0.014 10 4193 0 0 0 0
763	8135935 153 1098 3755 0.014 0.054 9 1 9 45 285
775	8136088 163 0 8384 0 0.105 10 1 2 19 37
781	8136251 85 4270 751326 0.059049774688 9.059049774688 3 44 44 132 5808
784	8136336 85 4270 751326 0.059049774688 9.059049774688 3 45 45 135 6075
785	8136421 125 4273 751772 0.059049774688 9.064 5 45 47 229 10493
786	8136546 76 244992 751713 3.062 9.063 4 0 0 0 0
787	8136622 38 245118 751768 3.064 9.064 2 0 0 0 0
788	8136660 52 4320 751376 0.06 9.06 3 0 0 0 0
795	8136712 16 4320 4320 0.06 0.06 1 1 1 1 1
807	8136728 163 0 8385 0 0.105 10 1 2 19 37
813	8136891 85 7355 754555 0.093147725489 9.093147725489 3 44 44 132 5808
816	8136976 85 7355 754555 0.093147725489 9.093147725489 3 45 45 135 6075
817	8137061 143 7358 754966 0.093147725489 9.098 6 45 47 276 12702
818	8137204 110 7574 754908 0.096 9.097 6 0 0 0 0
819	8137314 55 7711 754962 0.098 9.098 3 0 0 0 0
820	8137369 55 7387 754591 0.094 9.094 3 0 0 0 0
839	8137424 10 0 0 0 0 1 1 1 1 1
845	8137434 79 3204 750233 0.0465854099 9.0465854099 3 44 44 132 5808
848	8137513 79 3204 750233 0.0465854099 9.0465854099 3 45 45 135 6075
849	8137592 79 3207 750236 0.0465854099 9.0465854099 3 45 45 135 6075
852	8137671 37575 3231 831827 0.047 9.997 1991 0 0 0 0
859	8175246 42441 3231 831827 0.047 9.997 1991 1 1991 1983036 2632810796
871	8217687 10 0 0 0 0 1 1 1 1 1
877	8217697 85 2826 749802 0.041401293019 9.041401293019 3 44 44 132 5808
880	8217782 85 2826 749802 0.041401293019 9.041401293019 3 45 45 135 6075
881	8217867 85 2829 749805 0.041401293019 9.041401293019 3 45 45 135 6075
884	8217952 26499 2879 831829 0.042 9.997 1395 0 0 0 0
890	8244451 29517 243174 831829 3.042 9.997 1392 1 1392 969528 900045160
891	8273968 51 2879 3624 0.042 0.052 3 1 3 6 14
903	8274019 163 0 8386 0 0.105 10 1 2 19 37
909	8274182 85 3705 750796 0.053527664666 9.053527664666 3 44 44 132 5808
912	8274267 85 3705 750796 0.053527664666 9.053527664666 3 45 45 135 6075
913	8274352 818 3708 758225 0.053527664666 9.133 43 5 45 350 7450
914	8275170 448410 1602 832146 0.023 10 23935 0 0 0 0
915	8723580 732 4179 758221 0.058 9.133 40 0 0 0 0
916	8724312 447227 1602 832146 0.023 10 23869 0 0 0 0
920	9171539 55 7674 754923 0.097 9.097 3 1 3 6 14
921	9171594 410 1764 755316 0.025 9.101 23 1 23 276 4324
935	9172004 10 0 0 0 0 1 1 1 1 1
941	9172014 85 4210 751255 0.058625387866 9.058625387866 3 44 44 132 5808
944	9172099 85 4210 751255 0.058625387866 9.058625387866 3 45 45 135 6075
945	9172184 85 4213 751258 0.058625387866 9.058625387866 3 45 45 135 6075
948	9172269 37543 4241 832027 0.059 9.999 1989 0 0 0 0
955	9209812 42403 4241 832027 0.059 9.999 1989 1 1989 1979055 2624886615
967	9252215 10 0 0 0 0 1 1 1 1 1
973	9252225 85 1260 747773 0.017291934837 9.017291934837 3 44 44 132 5808
976	9252310 85 1260 747773 0.017291934837 9.017291934837 3 45 45 135 6075
977	9252395 85 1263 747776 0.017291934837 9.017291934837 3 45 45 135 6075
978	9252480 110380 1488 831839 0.02 9.997 5909 0 0 0 0
980	9362860 74844 1315 831896 0.018 9.998 3967 0 0 0 0
986	9437704 531 798758 831896 9.608 9.998 27 1 27 378 6930
999	9438235 10 0 0 0 0 1 1 1 1 1
1479	9438245 94 1072 747443 0.013945144669 9.013945144669 3 7504 7504 22512 168930048
1480	9438339 94 1072 747443 0.013945144669 9.013945144669 3 7504 7504 22512 168930048
1482	9438433 85 1072 747443 0.013945144669 9.013945144669 3 0 0 0 0
1493	9438518 85 1072 747443 0.013945144669 9.013945144669 3 0 0 0 0
1503	9438603 94 1257 747770 0.017291934837 9.017291934837 3 7504 7504 22512 168930048
1504	9438697 94 1257 747770 0.017291934837 9.017291934837 3 7504 7504 22512 168930048
1506	9438791 85 1257 747770 0.017291934837 9.017291934837 3 0 0 0 0
1517	9438876 85 1257 747770 0.017291934837 9.017291934837 3 0 0 0 0
1527	9438961 94 1490 748081 0.020429364846 9.020429364846 3 7504 7504 22512 168930048
1528	9439055 94 1490 748081 0.020429364846 9.020429364846 3 7504 7504 22512 168930048
1530	9439149 85 1490 748081 0.020429364846 9.020429364846 3 0 0 0 0
1541	9439234 85 1490 748081 0.020429364846 9.020429364846 3 0 0 0 0
1551	9439319 94 1607 748270 0.023409340573 9.023409340573 3 7504 7504 22512 168930048
1552	9439413 94 1607 748270 0.023409340573 9.023409340573 3 7504 7504 22512 168930048
1554	9439507 85 1607 748270 0.023409340573 9.023409340573 3 0 0 0 0
1565	9439592 85 1607 748270 0.023409340573 9.023409340573 3 0 0 0 0
1575	9439677 94 1975 748775 0.029577355213 9.029577355213 3 7504 7504 22512 168930048
1576	9439771 94 1975 748775 0.029577355213 9.029577355213 3 7504 7504 22512 168930048
1578	9439865 85 1975 748775 0.029577355213 9.029577355213 3 0 0 0 0
1589	9439950 85 1975 748775 0.029577355213 9.029577355213 3 0 0 0 0
1599	9440035 94 2134 748962 0.031389955268 9.031389955268 3 7504 7504 22512 168930048
1600	9440129 94 2134 748962 0.031389955268 9.031389955268 3 7504 7504 22512 168930048
1602	9440223 85 2134 748962 0.031389955268 9.031389955268 3 0 0 0 0
1613	9440308 85 2134 748962 0.031389955268 9.031389955268 3 0 0 0 0
1623	9440393 94 2236 749098 0.032763117831 9.032763117831 3 7504 7504 22512 168930048
1624	9440487 94 2236 749098 0.032763117831 9.032763117831 3 7504 7504 22512 168930048
1626	9440581 85 2236 749098 0.032763117831 9.032763117831 3 0 0 0 0
1637	9440666 85 2236 749098 0.032763117831 9.032763117831 3 0 0 0 0
1647	9440751 91 2244 749105 0.03277608233 9.03277608233 3 7504 7504 22512 168930048
1648	9440842 91 2244 749105 0.03277608233 9.03277608233 3 7504 7504 22512 168930048
1650	9440933 82 2244 749105 0.03277608233 9.03277608233 3 0 0 0 0
1661	9441015 82 2244 749105 0.03277608233 9.03277608233 3 0 0 0 0
1671	9441097 94 2296 749176 0.033984720812 9.033984720812 3 7504 7504 22512 168930048
1672	9441191 94 2296 749176 0.033984720812 9.033984720812 3 7504 7504 22512 168930048
1674	9441285 85 2296 749176 0.033984720812 9.033984720812 3 0 0 0 0
1685	9441370 85 2296 749176 0.033984720812 9.033984720812 3 0 0 0 0
1695	9441455 94 2823 749799 0.041401293019 9.041401293019 3 7504 7504 22512 168930048
1696	9441549 94 2823 749799 0.041401293019 9.041401293019 3 7504 7504 22512 168930048
1698	9441643 85 2823 749799 0.041401293019 9.041401293019 3 0 0 0 0
1709	9441728 85 2823 749799 0.041401293019 9.041401293019 3 0 0 0 0
1719	9441813 88 3201 750230 0.0465854099 9.0465854099 3 7504 7504 22512 168930048
1720	9441901 88 3201 750230 0.0465854099 9.0465854099 3 7504 7504 22512 168930048
1722	9441989 79 3201 750230 0.0465854099 9.0465854099 3 0 0 0 0
1733	9442068 79 3201 750230 0.0465854099 9.0465854099 3 0 0 0 0
1743	9442147 94 3591 750661 0.051714848483 9.051714848483 3 7504 7504 22512 168930048
1744	9442241 94 3591 750661 0.051714848483 9.051714848483 3 7504 7504 22512 168930048
1746	9442335 85 3591 750661 0.051714848483 9.051714848483 3 0 0 0 0
1757	9442420 85 3591 750661 0.051714848483 9.051714848483 3 0 0 0 0
1767	9442505 94 3702 750793 0.053527664666 9.053527664666 3 7504 7504 22512 168930048
1768	9442599 94 3702 750793 0.053527664666 9.053527664666 3 7504 7504 22512 168930048
1770	9442693 85 3702 750793 0.053527664666 9.053527664666 3 0 0 0 0
1781	9442778 85 3702 750793 0.053527664666 9.053527664666 3 0 0 0 0
1791	9442863 94 4207 751252 0.058625387866 9.058625387866 3 7504 7504 22512 168930048
1792	9442957 94 4207 751252 0.058625387866 9.058625387866 3 7504 7504 22512 168930048
1794	9443051 85 4207 751252 0.058625387866 9.058625387866 3 0 0 0 0
1805	9443136 85 4207 751252 0.058625387866 9.058625387866 3 0 0 0 0
1815	9443221 94 4267 751323 0.059049774688 9.059049774688 3 7504 7504 22512 168930048
1816	9443315 94 4267 751323 0.059049774688 9.059049774688 3 7504 7504 22512 168930048
1818	9443409 85 4267 751323 0.059049774688 9.059049774688 3 0 0 0 0
1829	9443494 85 4267 751323 0.059049774688 9.059049774688 3 0 0 0 0
1839	9443579 94 4356 751426 0.060278170027 9.060278170027 3 7504 7504 22512 168930048
1840	9443673 94 4356 751426 0.060278170027 9.060278170027 3 7504 7504 22512 168930048
1842	9443767 85 4356 751426 0.060278170027 9.060278170027 3 0 0 0 0
1853	9443852 85 4356 751426 0.060278170027 9.060278170027 3 0 0 0 0
1863	9443937 94 4577 751662 0.062601716756 9.062601716756 3 7504 7504 22512 168930048
1864	9444031 94 4577 751662 0.062601716756 9.062601716756 3 7504 7504 22512 168930048
1866	9444125 85 4577 751662 0.062601716756 9.062601716756 3 0 0 0 0
1877	9444210 85 4577 751662 0.062601716756 9.062601716756 3 0 0 0 0
1887	9444295 94 5770 752890 0.076266208328 9.076266208328 3 7504 7504 22512 168930048
1888	9444389 94 5770 752890 0.076266208328 9.076266208328 3 7504 7504 22512 168930048
1890	9444483 85 5770 752890 0.076266208328 9.076266208328 3 0 0 0 0
1901	9444568 85 5770 752890 0.076266208328 9.076266208328 3 0 0 0 0
1911	9444653 94 6299 753446 0.082919128996 9.082919128996 3 7504 7504 22512 168930048
1912	9444747 94 6299 753446 0.082919128996 9.082919128996 3 7504 7504 22512 168930048
1914	9444841 85 6299 753446 0.082919128996 9.082919128996 3 0 0 0 0
1925	9444926 85 6299 753446 0.082919128996 9.082919128996 3 0 0 0 0
1935	9445011 94 6368 753528 0.083256449993 9.083256449993 3 7504 7504 22512 168930048
1936	9445105 94 6368 753528 0.083256449993 9.083256449993 3 7504 7504 22512 168930048
1938	9445199 85 6368 753528 0.083256449993 9.083256449993 3 0 0 0 0
1949	9445284 85 6368 753528 0.083256449993 9.083256449993 3 0 0 0 0
1959	9445369 94 6785 753946 0.087465974346 9.087465974346 3 7504 7504 22512 168930048
1960	9445463 94 6785 753946 0.087465974346 9.087465974346 3 7504 7504 22512 168930048
1962	9445557 85 6785 753946 0.087465974346 9.087465974346 3 0 0 0 0
1973	9445642 85 6785 753946 0.087465974346 9.087465974346 3 0 0 0 0
1983	9445727 94 6920 754105 0.089455451544 9.089455451544 3 7504 7504 22512 168930048
1984	9445821 94 6920 754105 0.089455451544 9.089455451544 3 7504 7504 22512 168930048
1986	9445915 85 6920 754105 0.089455451544 9.089455451544 3 0 0 0 0
1997	9446000 85 6920 754105 0.089455451544 9.089455451544 3 0 0 0 0
2007	9446085 94 7344 754545 0.093058322349 9.093058322349 3 7504 7504 22512 168930048
2008	9446179 94 7344 754545 0.093058322349 9.093058322349 3 7504 7504 22512 168930048
2010	9446273 85 7344 754545 0.093058322349 9.093058322349 3 0 0 0 0
2021	9446358 85 7344 754545 0.093058322349 9.093058322349 3 0 0 0 0
2031	9446443 94 7352 754552 0.093147725489 9.093147725489 3 7504 7504 22512 168930048
2032	9446537 94 7352 754552 0.093147725489 9.093147725489 3 7504 7504 22512 168930048
2034	9446631 85 7352 754552 0.093147725489 9.093147725489 3 0 0 0 0
2045	9446716 85 7352 754552 0.093147725489 9.093147725489 3 0 0 0 0
2055	9446801 94 7816 755073 0.098821217397 9.098821217397 3 7504 7504 22512 168930048
2056	9446895 94 7816 755073 0.098821217397 9.098821217397 3 7504 7504 22512 168930048
2058	9446989 85 7816 755073 0.098821217397 9.098821217397 3 0 0 0 0
2069	9447074 85 7816 755073 0.098821217397 9.098821217397 3 0 0 0 0
