version 2
run CAIN-32-20200508-17:07:44-16267
attr configname CAIN
attr datetime 20200508-17:07:44
attr dist 200
attr experiment CAIN
attr inifile omnetpp.ini
attr iterationvars "$numUe=25, $pwr=-50, $dist=200, $mob=\"./movements/RWP-0.0.movements\""
attr iterationvars2 "$numUe=25, $pwr=-50, $dist=200, $mob=\"./movements/RWP-0.0.movements\", $repetition=2"
attr measurement "$numUe=25, $pwr=-50, $dist=200, $mob=\"./movements/RWP-0.0.movements\""
attr mob "\"./movements/RWP-0.0.movements\""
attr network lte.simulations.networks.CAIN
attr numUe 25
attr processid 16267
attr pwr -50
attr repetition 2
attr replication #2
attr resultdir results
attr runnumber 32
attr seedset 2
param **.**.amcMode "\"AUTO\""
param **.amcMode "\"D2D\""
param **.cainNetwork true
param **.channelControl.alpha 1.0
param **.channelControl.carrierFrequency 2100e+6Hz
param **.channelControl.pMax 10W
param **.d2dCqi 7
param **.deployer.numRbDl 50
param **.deployer.numRbUl 50
param **.distThresh ${dist=200}
param **.fbDelay 1
param **.feedbackComputation "xmldoc(\"config_channel.xml\")"
param **.mobility.constraintAreaMaxX 1000m
param **.mobility.constraintAreaMaxY 1000m
param **.mobility.constraintAreaMaxZ 0m
param **.mobility.constraintAreaMinX 0m
param **.mobility.constraintAreaMinY 0m
param **.mobility.constraintAreaMinZ 0m
param **.nic.phy.channelModel "xmldoc(\"config_channel.xml\")"
param **.numBands 50
param **.pwrThresh "${pwr= -50}"
param **.qtdThresh 3
param **.rbAllocationType "\"localized\""
param **.routingRecorder.enabled false
param **.tcpApp[*].tClose -1s
param **.ueD2DTx[*].mobility.changeAngleBy "normal(0deg, 30deg)"
param **.ueD2DTx[*].mobility.changeInterval "normal(5s, 0.1s)"
param **.ueD2DTx[*].mobility.nodeId -1
param **.ueD2DTx[*].mobility.speed "normal(2mps, 0.01mps)"
param **.ueD2DTx[*].mobility.traceFile "${mob=\"./movements/RWP-0.0.movements\",\"./movements/RWP-0.5.movements\",\"./movements/RPGM-0.0.movements\",\"./movements/RPGM-0.5.movements\",\"./movements/RWPRPGM-0.0.movements\",\"./movements/RWPRPGM-0.5.movements\"}"
param **.ueD2DTx[*].mobilityType "\"BonnMotionMobility\""
param **.usePreconfiguredTxParams false
param *.eNodeB*.numX2Apps 1
param *.eNodeB*.x2App[*].server.localPort "5000 + ancestorIndex(1)"
param *.eNodeB.d2dCapable false
param *.eNodeB.mobility.initFromDisplayString false
param *.eNodeB.mobility.initialX 300m
param *.eNodeB.mobility.initialY 300m
param *.eNodeB.nic.phy.enableD2DCqiReporting true
param *.eNodeB.txPower 19952.62315mw
param *.eNodeB.x2App[0].client.connectAddress "\"eNodeB1%x2ppp0\""
param *.eNodeB1.d2dCapable true
param *.eNodeB1.mobility.initFromDisplayString false
param *.eNodeB1.mobility.initialX 700m
param *.eNodeB1.mobility.initialY 300m
param *.eNodeB1.nic.phy.enableD2DCqiReporting true
param *.eNodeB1.txPower 19952.62315mw
param *.eNodeB1.x2App[0].client.connectAddress "\"eNodeB%x2ppp0\""
param *.extCell[*].bandAllocationType "\"FULL_ALLOC\""
param *.extCell[*].bandUtilization 0.5
param *.extCell[*].txDirection "\"ANISOTROPIC\""
param *.extCell[*].txPower 20
param *.extCell[0].position_x 100m
param *.extCell[0].position_y 600m
param *.extCell[0].txAngle 315
param *.extCell[1].position_x 600m
param *.extCell[1].position_y 600m
param *.extCell[1].txAngle 225
param *.numExtCells 2
param *.numUeCell 0
param *.numUeD2DRx 1
param *.numUeD2DTx 1
param *.ue*.macCellId 1
param *.ue*.masterId 1
param *.ue*.mobility.initFromDisplayString false
param *.ue*[0].macCellId 1
param *.ue*[0].masterId 1
param *.ue*[0].mobility.initFromDisplayString false
param *.ueD2D*.numTcpApps 1
param *.ueD2D*[*].d2dCapable true
param *.ueD2D*[0].d2dCapable false
param *.ueD2D*[0].numTcpApps 1
param *.ueD2DRx[0].mobility.initialX 310m
param *.ueD2DRx[0].mobility.initialY 350m
param *.ueD2DRx[0].tcpApp[*].localPort 1000
param *.ueD2DRx[0].tcpApp[*].typename "\"TCPSinkApp\""
param *.ueD2DTx*.nic.d2dPeerAddresses "\"ueD2DTx[1]\""
param *.ueD2DTx*.tcpApp[*].connectAddress "\"ueD2DTx[0]\""
param *.ueD2DTx*.tcpApp[*].localAddress "\"ueD2DTx\""
param *.ueD2DTx*.tcpApp[*].localPort 1000
param *.ueD2DTx*.tcpApp[*].sendBytes 1GiB
param *.ueD2DTx*.tcpApp[*].typename "\"TCPSessionApp\""
param *.ueD2DTx*.tcpApp[0].active true
param *.ueD2DTx*.tcpApp[0].connectPort 1000
param *.ueD2DTx*.tcpApp[0].tOpen uniform(0.010s,0.1s)
param *.ueD2DTx*.tcpApp[0].tSend uniform(0.15s,0.5s)
param *.ueD2DTx[0].mobility.initialX 290m
param *.ueD2DTx[0].mobility.initialY 350m
param *.ueD2DTx[0].tcpApp[*].localPort 1000
param *.ueD2DTx[0].tcpApp[*].sendBytes 1GiB
param *.ueD2DTx[0].tcpApp[*].typename "\"TCPSessionApp\""
param *.ueD2DTx[0].tcpApp[0].active true
param *.ueD2DTx[0].tcpApp[0].connectAddress "\"ueD2DRx[0]\""
param *.ueD2DTx[0].tcpApp[0].connectPort 1000
param *.ueD2DTx[0].tcpApp[0].localAddress "\"ueD2DTx[0]\""
param *.ueD2DTx[0].tcpApp[0].tOpen uniform(0.010s,0.1s)
param *.ueD2DTx[0].tcpApp[0].tSend uniform(0.15s,0.5s)
param *.ueD2DTx[1].mobility.initialX 690m
param *.ueD2DTx[1].mobility.initialY 250m

vector 8  CAIN.server.ppp[0].queue  queueLength:vector  ETV
attr interpolationmode  sample-hold
attr title  "queue length, vector"
vector 9  CAIN.server.ppp[0].ppp  txState:vector  ETV
attr interpolationmode  sample-hold
attr title  "tx state, vector"
vector 24  CAIN.router.ppp[0].queue  queueLength:vector  ETV
attr interpolationmode  sample-hold
attr title  "queue length, vector"
vector 25  CAIN.router.ppp[0].ppp  txState:vector  ETV
attr interpolationmode  sample-hold
attr title  "tx state, vector"
vector 35  CAIN.router.ppp[1].queue  queueLength:vector  ETV
attr interpolationmode  sample-hold
attr title  "queue length, vector"
vector 36  CAIN.router.ppp[1].ppp  txState:vector  ETV
attr interpolationmode  sample-hold
attr title  "tx state, vector"
vector 56  CAIN.pgw.ppp[0].queue  queueLength:vector  ETV
attr interpolationmode  sample-hold
attr title  "queue length, vector"
vector 57  CAIN.pgw.ppp[0].ppp  txState:vector  ETV
attr interpolationmode  sample-hold
attr title  "tx state, vector"
vector 67  CAIN.pgw.ppp[1].queue  queueLength:vector  ETV
attr interpolationmode  sample-hold
attr title  "queue length, vector"
vector 68  CAIN.pgw.ppp[1].ppp  txState:vector  ETV
attr interpolationmode  sample-hold
attr title  "tx state, vector"
vector 78  CAIN.pgw.pppInterface.queue  queueLength:vector  ETV
attr interpolationmode  sample-hold
attr title  "queue length, vector"
vector 79  CAIN.pgw.pppInterface.ppp  txState:vector  ETV
attr interpolationmode  sample-hold
attr title  "tx state, vector"
vector 120  CAIN.eNodeB.pppIf.queue  queueLength:vector  ETV
attr interpolationmode  sample-hold
attr title  "queue length, vector"
vector 121  CAIN.eNodeB.pppIf.ppp  txState:vector  ETV
attr interpolationmode  sample-hold
attr title  "tx state, vector"
vector 131  CAIN.eNodeB.x2ppp[0].queue  queueLength:vector  ETV
attr interpolationmode  sample-hold
attr title  "queue length, vector"
vector 132  CAIN.eNodeB.x2ppp[0].ppp  txState:vector  ETV
attr interpolationmode  sample-hold
attr title  "tx state, vector"
vector 178  CAIN.eNodeB1.pppIf.queue  queueLength:vector  ETV
attr interpolationmode  sample-hold
attr title  "queue length, vector"
vector 179  CAIN.eNodeB1.pppIf.ppp  txState:vector  ETV
attr interpolationmode  sample-hold
attr title  "tx state, vector"
vector 189  CAIN.eNodeB1.x2ppp[0].queue  queueLength:vector  ETV
attr interpolationmode  sample-hold
attr title  "queue length, vector"
vector 190  CAIN.eNodeB1.x2ppp[0].ppp  txState:vector  ETV
attr interpolationmode  sample-hold
attr title  "tx state, vector"
vector 231  CAIN.ueD2DTx[0].nic.phy  servingCell:vector  ETV
attr source  servingCell
attr title  "ID of the serving eNodeB for the UE, vector"
attr unit  ""
vector 263  CAIN.ueD2DTx[1].nic.phy  servingCell:vector  ETV
attr source  servingCell
attr title  "ID of the serving eNodeB for the UE, vector"
attr unit  ""
vector 295  CAIN.ueD2DTx[2].nic.phy  servingCell:vector  ETV
attr source  servingCell
attr title  "ID of the serving eNodeB for the UE, vector"
attr unit  ""
vector 327  CAIN.ueD2DTx[3].nic.phy  servingCell:vector  ETV
attr source  servingCell
attr title  "ID of the serving eNodeB for the UE, vector"
attr unit  ""
vector 359  CAIN.ueD2DTx[4].nic.phy  servingCell:vector  ETV
attr source  servingCell
attr title  "ID of the serving eNodeB for the UE, vector"
attr unit  ""
vector 391  CAIN.ueD2DTx[5].nic.phy  servingCell:vector  ETV
attr source  servingCell
attr title  "ID of the serving eNodeB for the UE, vector"
attr unit  ""
vector 423  CAIN.ueD2DTx[6].nic.phy  servingCell:vector  ETV
attr source  servingCell
attr title  "ID of the serving eNodeB for the UE, vector"
attr unit  ""
vector 455  CAIN.ueD2DTx[7].nic.phy  servingCell:vector  ETV
attr source  servingCell
attr title  "ID of the serving eNodeB for the UE, vector"
attr unit  ""
vector 487  CAIN.ueD2DTx[8].nic.phy  servingCell:vector  ETV
attr source  servingCell
attr title  "ID of the serving eNodeB for the UE, vector"
attr unit  ""
vector 519  CAIN.ueD2DTx[9].nic.phy  servingCell:vector  ETV
attr source  servingCell
attr title  "ID of the serving eNodeB for the UE, vector"
attr unit  ""
vector 551  CAIN.ueD2DTx[10].nic.phy  servingCell:vector  ETV
attr source  servingCell
attr title  "ID of the serving eNodeB for the UE, vector"
attr unit  ""
vector 583  CAIN.ueD2DTx[11].nic.phy  servingCell:vector  ETV
attr source  servingCell
attr title  "ID of the serving eNodeB for the UE, vector"
attr unit  ""
vector 615  CAIN.ueD2DTx[12].nic.phy  servingCell:vector  ETV
attr source  servingCell
attr title  "ID of the serving eNodeB for the UE, vector"
attr unit  ""
vector 647  CAIN.ueD2DTx[13].nic.phy  servingCell:vector  ETV
attr source  servingCell
attr title  "ID of the serving eNodeB for the UE, vector"
attr unit  ""
vector 679  CAIN.ueD2DTx[14].nic.phy  servingCell:vector  ETV
attr source  servingCell
attr title  "ID of the serving eNodeB for the UE, vector"
attr unit  ""
vector 711  CAIN.ueD2DTx[15].nic.phy  servingCell:vector  ETV
attr source  servingCell
attr title  "ID of the serving eNodeB for the UE, vector"
attr unit  ""
vector 743  CAIN.ueD2DTx[16].nic.phy  servingCell:vector  ETV
attr source  servingCell
attr title  "ID of the serving eNodeB for the UE, vector"
attr unit  ""
vector 775  CAIN.ueD2DTx[17].nic.phy  servingCell:vector  ETV
attr source  servingCell
attr title  "ID of the serving eNodeB for the UE, vector"
attr unit  ""
vector 807  CAIN.ueD2DTx[18].nic.phy  servingCell:vector  ETV
attr source  servingCell
attr title  "ID of the serving eNodeB for the UE, vector"
attr unit  ""
vector 839  CAIN.ueD2DTx[19].nic.phy  servingCell:vector  ETV
attr source  servingCell
attr title  "ID of the serving eNodeB for the UE, vector"
attr unit  ""
vector 871  CAIN.ueD2DTx[20].nic.phy  servingCell:vector  ETV
attr source  servingCell
attr title  "ID of the serving eNodeB for the UE, vector"
attr unit  ""
vector 903  CAIN.ueD2DTx[21].nic.phy  servingCell:vector  ETV
attr source  servingCell
attr title  "ID of the serving eNodeB for the UE, vector"
attr unit  ""
vector 935  CAIN.ueD2DTx[22].nic.phy  servingCell:vector  ETV
attr source  servingCell
attr title  "ID of the serving eNodeB for the UE, vector"
attr unit  ""
vector 967  CAIN.ueD2DTx[23].nic.phy  servingCell:vector  ETV
attr source  servingCell
attr title  "ID of the serving eNodeB for the UE, vector"
attr unit  ""
vector 999  CAIN.ueD2DTx[24].nic.phy  servingCell:vector  ETV
attr source  servingCell
attr title  "ID of the serving eNodeB for the UE, vector"
attr unit  ""
vector 1023  CAIN.eNodeB.sctp  "Throughput of Association 3"  ETV
vector 1045  CAIN.eNodeB1.sctp  "Throughput of Association 4"  ETV
vector 1067  CAIN.eNodeB.sctp  "Throughput of Association 1"  ETV
vector 1087  CAIN.eNodeB.sctp  "Fast Recovery State 1:10.0.5.2"  ETV
vector 1116  CAIN.eNodeB1.sctp  "Throughput of Association 2"  ETV
vector 1136  CAIN.eNodeB1.sctp  "Fast Recovery State 2:10.0.5.1"  ETV
vector 128  CAIN.eNodeB.x2ppp[0].queue  rcvdPk:vector(packetBytes)  ETV
attr interpolationmode  none
attr title  "received packets, vector(packetBytes)"
vector 130  CAIN.eNodeB.x2ppp[0].queue  queueingTime:vector  ETV
attr interpolationmode  none
attr title  "queueing time, vector"
vector 186  CAIN.eNodeB1.x2ppp[0].queue  rcvdPk:vector(packetBytes)  ETV
attr interpolationmode  none
attr title  "received packets, vector(packetBytes)"
vector 188  CAIN.eNodeB1.x2ppp[0].queue  queueingTime:vector  ETV
attr interpolationmode  none
attr title  "queueing time, vector"
vector 137  CAIN.eNodeB.x2ppp[0].ppp  rcvdPkFromHL:vector(packetBytes)  ETV
attr interpolationmode  none
attr source  packetReceivedFromUpper
attr title  "packets received from higher layer, vector(packetBytes)"
vector 133  CAIN.eNodeB.x2ppp[0].ppp  txPk:vector(packetBytes)  ETV
attr interpolationmode  none
attr source  packetSentToLower
attr title  "packets transmitted, vector(packetBytes)"
vector 195  CAIN.eNodeB1.x2ppp[0].ppp  rcvdPkFromHL:vector(packetBytes)  ETV
attr interpolationmode  none
attr source  packetReceivedFromUpper
attr title  "packets received from higher layer, vector(packetBytes)"
vector 191  CAIN.eNodeB1.x2ppp[0].ppp  txPk:vector(packetBytes)  ETV
attr interpolationmode  none
attr source  packetSentToLower
attr title  "packets transmitted, vector(packetBytes)"
vector 192  CAIN.eNodeB1.x2ppp[0].ppp  rxPkOk:vector(packetBytes)  ETV
attr interpolationmode  none
attr source  rxPkOk
attr title  "packets received OK, vector(packetBytes)"
vector 196  CAIN.eNodeB1.x2ppp[0].ppp  passedUpPk:vector(packetBytes)  ETV
attr interpolationmode  none
attr source  packetSentToUpper
attr title  "packets passed to higher layer, vector(packetBytes)"
vector 134  CAIN.eNodeB.x2ppp[0].ppp  rxPkOk:vector(packetBytes)  ETV
attr interpolationmode  none
attr source  rxPkOk
attr title  "packets received OK, vector(packetBytes)"
vector 138  CAIN.eNodeB.x2ppp[0].ppp  passedUpPk:vector(packetBytes)  ETV
attr interpolationmode  none
attr source  packetSentToUpper
attr title  "packets passed to higher layer, vector(packetBytes)"
vector 1165  CAIN.eNodeB1.sctp  "Throughput of Association 4"  ETV
vector 1042  CAIN.eNodeB1.sctp  "Peer Rwnd 4"  ETV
vector 1185  CAIN.eNodeB1.sctp  "Fast Recovery State 5:10.0.4.1"  ETV
vector 1212  CAIN.eNodeB1.sctp  "Fast Recovery State 5:10.0.2.2"  ETV
vector 1239  CAIN.eNodeB1.sctp  "Fast Recovery State 5:10.0.5.1"  ETV
vector 1268  CAIN.eNodeB.sctp  "Throughput of Association 3"  ETV
vector 1020  CAIN.eNodeB.sctp  "Peer Rwnd 3"  ETV
vector 1288  CAIN.eNodeB.sctp  "Fast Recovery State 6:10.0.4.2"  ETV
vector 1315  CAIN.eNodeB.sctp  "Fast Recovery State 6:10.0.3.2"  ETV
vector 1342  CAIN.eNodeB.sctp  "Fast Recovery State 6:10.0.5.2"  ETV
vector 1064  CAIN.eNodeB.sctp  "Peer Rwnd 1"  ETV
vector 1369  CAIN.eNodeB.sctp  "Fast Recovery State 1:10.0.4.2"  ETV
vector 1396  CAIN.eNodeB.sctp  "Fast Recovery State 1:10.0.3.2"  ETV
vector 1113  CAIN.eNodeB1.sctp  "Peer Rwnd 2"  ETV
vector 1423  CAIN.eNodeB1.sctp  "Fast Recovery State 2:10.0.4.1"  ETV
vector 1450  CAIN.eNodeB1.sctp  "Fast Recovery State 2:10.0.2.2"  ETV
vector 1195  CAIN.eNodeB1.sctp  "Slow Start Threshold 5:10.0.2.2"  ETV
vector 1196  CAIN.eNodeB1.sctp  "Congestion Window 5:10.0.2.2"  ETV
vector 1197  CAIN.eNodeB1.sctp  "Bandwidth 5:10.0.2.2"  ETV
vector 1200  CAIN.eNodeB1.sctp  "HB Sent 5:10.0.2.2"  ETV
vector 1193  CAIN.eNodeB1.sctp  "RTO 5:10.0.2.2"  ETV
vector 1168  CAIN.eNodeB1.sctp  "Slow Start Threshold 5:10.0.4.1"  ETV
vector 1169  CAIN.eNodeB1.sctp  "Congestion Window 5:10.0.4.1"  ETV
vector 1170  CAIN.eNodeB1.sctp  "Bandwidth 5:10.0.4.1"  ETV
vector 1173  CAIN.eNodeB1.sctp  "HB Sent 5:10.0.4.1"  ETV
vector 1166  CAIN.eNodeB1.sctp  "RTO 5:10.0.4.1"  ETV
vector 1222  CAIN.eNodeB1.sctp  "Slow Start Threshold 5:10.0.5.1"  ETV
vector 1223  CAIN.eNodeB1.sctp  "Congestion Window 5:10.0.5.1"  ETV
vector 1224  CAIN.eNodeB1.sctp  "Bandwidth 5:10.0.5.1"  ETV
vector 1220  CAIN.eNodeB1.sctp  "RTO 5:10.0.5.1"  ETV
vector 1298  CAIN.eNodeB.sctp  "Slow Start Threshold 6:10.0.3.2"  ETV
vector 1299  CAIN.eNodeB.sctp  "Congestion Window 6:10.0.3.2"  ETV
vector 1300  CAIN.eNodeB.sctp  "Bandwidth 6:10.0.3.2"  ETV
vector 1303  CAIN.eNodeB.sctp  "HB Sent 6:10.0.3.2"  ETV
vector 1296  CAIN.eNodeB.sctp  "RTO 6:10.0.3.2"  ETV
vector 1271  CAIN.eNodeB.sctp  "Slow Start Threshold 6:10.0.4.2"  ETV
vector 1272  CAIN.eNodeB.sctp  "Congestion Window 6:10.0.4.2"  ETV
vector 1273  CAIN.eNodeB.sctp  "Bandwidth 6:10.0.4.2"  ETV
vector 1276  CAIN.eNodeB.sctp  "HB Sent 6:10.0.4.2"  ETV
vector 1269  CAIN.eNodeB.sctp  "RTO 6:10.0.4.2"  ETV
vector 1325  CAIN.eNodeB.sctp  "Slow Start Threshold 6:10.0.5.2"  ETV
vector 1326  CAIN.eNodeB.sctp  "Congestion Window 6:10.0.5.2"  ETV
vector 1327  CAIN.eNodeB.sctp  "Bandwidth 6:10.0.5.2"  ETV
vector 1323  CAIN.eNodeB.sctp  "RTO 6:10.0.5.2"  ETV
vector 1076  CAIN.eNodeB.sctp  "HB ACK Sent 1:10.0.5.2"  ETV
vector 1077  CAIN.eNodeB.sctp  "HB Received 1:10.0.5.2"  ETV
vector 1125  CAIN.eNodeB1.sctp  "HB ACK Sent 2:10.0.5.1"  ETV
vector 1126  CAIN.eNodeB1.sctp  "HB Received 2:10.0.5.1"  ETV
vector 1379  CAIN.eNodeB.sctp  "Slow Start Threshold 1:10.0.3.2"  ETV
vector 1380  CAIN.eNodeB.sctp  "Congestion Window 1:10.0.3.2"  ETV
vector 1381  CAIN.eNodeB.sctp  "Bandwidth 1:10.0.3.2"  ETV
vector 1384  CAIN.eNodeB.sctp  "HB Sent 1:10.0.3.2"  ETV
vector 1377  CAIN.eNodeB.sctp  "RTO 1:10.0.3.2"  ETV
vector 1352  CAIN.eNodeB.sctp  "Slow Start Threshold 1:10.0.4.2"  ETV
vector 1353  CAIN.eNodeB.sctp  "Congestion Window 1:10.0.4.2"  ETV
vector 1354  CAIN.eNodeB.sctp  "Bandwidth 1:10.0.4.2"  ETV
vector 1357  CAIN.eNodeB.sctp  "HB Sent 1:10.0.4.2"  ETV
vector 1350  CAIN.eNodeB.sctp  "RTO 1:10.0.4.2"  ETV
vector 1070  CAIN.eNodeB.sctp  "Slow Start Threshold 1:10.0.5.2"  ETV
vector 1071  CAIN.eNodeB.sctp  "Congestion Window 1:10.0.5.2"  ETV
vector 1072  CAIN.eNodeB.sctp  "Bandwidth 1:10.0.5.2"  ETV
vector 1068  CAIN.eNodeB.sctp  "RTO 1:10.0.5.2"  ETV
vector 1433  CAIN.eNodeB1.sctp  "Slow Start Threshold 2:10.0.2.2"  ETV
vector 1434  CAIN.eNodeB1.sctp  "Congestion Window 2:10.0.2.2"  ETV
vector 1435  CAIN.eNodeB1.sctp  "Bandwidth 2:10.0.2.2"  ETV
vector 1438  CAIN.eNodeB1.sctp  "HB Sent 2:10.0.2.2"  ETV
vector 1431  CAIN.eNodeB1.sctp  "RTO 2:10.0.2.2"  ETV
vector 1406  CAIN.eNodeB1.sctp  "Slow Start Threshold 2:10.0.4.1"  ETV
vector 1407  CAIN.eNodeB1.sctp  "Congestion Window 2:10.0.4.1"  ETV
vector 1408  CAIN.eNodeB1.sctp  "Bandwidth 2:10.0.4.1"  ETV
vector 1411  CAIN.eNodeB1.sctp  "HB Sent 2:10.0.4.1"  ETV
vector 1404  CAIN.eNodeB1.sctp  "RTO 2:10.0.4.1"  ETV
vector 1119  CAIN.eNodeB1.sctp  "Slow Start Threshold 2:10.0.5.1"  ETV
vector 1120  CAIN.eNodeB1.sctp  "Congestion Window 2:10.0.5.1"  ETV
vector 1121  CAIN.eNodeB1.sctp  "Bandwidth 2:10.0.5.1"  ETV
vector 1117  CAIN.eNodeB1.sctp  "RTO 2:10.0.5.1"  ETV
vector 1333  CAIN.eNodeB.sctp  "HB ACK Received 6:10.0.5.2"  ETV
vector 1324  CAIN.eNodeB.sctp  "RTT 6:10.0.5.2"  ETV
vector 1230  CAIN.eNodeB1.sctp  "HB ACK Received 5:10.0.5.1"  ETV
vector 1221  CAIN.eNodeB1.sctp  "RTT 5:10.0.5.1"  ETV
vector 1331  CAIN.eNodeB.sctp  "HB ACK Sent 6:10.0.5.2"  ETV
vector 1332  CAIN.eNodeB.sctp  "HB Received 6:10.0.5.2"  ETV
vector 1228  CAIN.eNodeB1.sctp  "HB ACK Sent 5:10.0.5.1"  ETV
vector 1229  CAIN.eNodeB1.sctp  "HB Received 5:10.0.5.1"  ETV
vector 1127  CAIN.eNodeB1.sctp  "HB ACK Received 2:10.0.5.1"  ETV
vector 1118  CAIN.eNodeB1.sctp  "RTT 2:10.0.5.1"  ETV
vector 1078  CAIN.eNodeB.sctp  "HB ACK Received 1:10.0.5.2"  ETV
vector 1069  CAIN.eNodeB.sctp  "RTT 1:10.0.5.2"  ETV
vector 96  CAIN.eNodeB.nic.mac  receivedPacketFromLowerLayer:vector(packetBytes)  ETV
attr interpolationmode  none
attr source  receivedPacketFromLowerLayer
vector 1465  CAIN.eNodeB.sctp  "SendQueue of Association 6"  ETV
vector 1328  CAIN.eNodeB.sctp  "TSN Sent 6:10.0.5.2"  ETV
vector 1335  CAIN.eNodeB.sctp  "Outstanding Bytes 6:10.0.5.2"  ETV
vector 1008  CAIN.eNodeB.sctp  "Outstanding Bytes 3:Total"  ETV
vector 1334  CAIN.eNodeB.sctp  "Queued Sent Bytes 6:10.0.5.2"  ETV
vector 1007  CAIN.eNodeB.sctp  "Queued Sent Bytes 3:Total"  ETV
vector 1123  CAIN.eNodeB1.sctp  "TSN Received 2:10.0.5.1"  ETV
vector 1099  CAIN.eNodeB1.sctp  "Queued Received Bytes 2:Total"  ETV
vector 1095  CAIN.eNodeB1.sctp  "Advertised Receiver Window 2"  ETV
vector 1104  CAIN.eNodeB1.sctp  "Number of Total Gap Blocks Stored 2"  ETV
vector 1105  CAIN.eNodeB1.sctp  "Number of Revokable Gap Blocks Stored 2"  ETV
vector 1106  CAIN.eNodeB1.sctp  "Number of Non-Revokable Gap Blocks Stored 2"  ETV
vector 1107  CAIN.eNodeB1.sctp  "Number of Duplicate TSNs Stored 2"  ETV
vector 1111  CAIN.eNodeB1.sctp  "Length of SACK Sent 2"  ETV
vector 1108  CAIN.eNodeB1.sctp  "Number of Revokable Gap Blocks Sent 2"  ETV
vector 1109  CAIN.eNodeB1.sctp  "Number of Non-Revokable Gap Blocks Sent 2"  ETV
vector 1110  CAIN.eNodeB1.sctp  "Number of Duplicate TSNs Sent 2"  ETV
vector 1115  CAIN.eNodeB1.sctp  "End to End Delay of Association 2"  ETV
vector 199  CAIN.eNodeB1.x2App[0].client  rcvdPk:vector(packetBytes)  ETV
attr interpolationmode  none
attr source  rcvdPk
attr title  "packets received, vector(packetBytes)"
vector 1464  CAIN.eNodeB.sctp  "Number of Gap Blocks in Last SACK of Association 6"  ETV
vector 1009  CAIN.eNodeB.sctp  "Number of Revokable Gap Blocks in SACK 3"  ETV
vector 1010  CAIN.eNodeB.sctp  "Number of Non-Revokable Gap Blocks in SACK 3"  ETV
vector 1345  CAIN.eNodeB.sctp  "TSN Acked CumAck 6:10.0.5.2"  ETV
vector 1311  CAIN.eNodeB.sctp  "Number of Gap Acked Chunks in Last SACK 6:10.0.3.2"  ETV
vector 1312  CAIN.eNodeB.sctp  "Number of Non-Revokable Gap Acked Chunks in Last SACK 6:10.0.3.2"  ETV
vector 1313  CAIN.eNodeB.sctp  "Number of Gap Missed Chunks in Last SACK 6:10.0.3.2"  ETV
vector 1284  CAIN.eNodeB.sctp  "Number of Gap Acked Chunks in Last SACK 6:10.0.4.2"  ETV
vector 1285  CAIN.eNodeB.sctp  "Number of Non-Revokable Gap Acked Chunks in Last SACK 6:10.0.4.2"  ETV
vector 1286  CAIN.eNodeB.sctp  "Number of Gap Missed Chunks in Last SACK 6:10.0.4.2"  ETV
vector 1338  CAIN.eNodeB.sctp  "Number of Gap Acked Chunks in Last SACK 6:10.0.5.2"  ETV
vector 1339  CAIN.eNodeB.sctp  "Number of Non-Revokable Gap Acked Chunks in Last SACK 6:10.0.5.2"  ETV
vector 1340  CAIN.eNodeB.sctp  "Number of Gap Missed Chunks in Last SACK 6:10.0.5.2"  ETV
vector 1019  CAIN.eNodeB.sctp  "Arwnd in Last SACK 3"  ETV
vector 1347  CAIN.eNodeB.sctp  "TSN PseudoCumAck 6:10.0.5.2"  ETV
vector 1348  CAIN.eNodeB.sctp  "TSN RTXPseudoCumAck 6:10.0.5.2"  ETV
vector 1341  CAIN.eNodeB.sctp  "Partial Bytes Acked 6:10.0.5.2"  ETV
vector 1493  CAIN.ueD2DTx[17].tcp  tcpRcvQueueBytes  ETV
vector 1480  CAIN.ueD2DTx[17].tcp  "advertised window"  ETV
vector 1479  CAIN.ueD2DTx[17].tcp  "receive window"  ETV
vector 1482  CAIN.ueD2DTx[17].tcp  "sent ack"  ETV
vector 749  CAIN.ueD2DTx[17].nic.pdcpRrc  receivedPacketFromUpperLayer:vector(packetBytes)  ETV
attr interpolationmode  none
attr source  receivedPacketFromUpperLayer
vector 752  CAIN.ueD2DTx[17].nic.pdcpRrc  sentPacketToLowerLayer:vector(packetBytes)  ETV
attr interpolationmode  none
attr source  sentPacketToLowerLayer
vector 753  CAIN.ueD2DTx[17].nic.mac  receivedPacketFromUpperLayer:vector(packetBytes)  ETV
attr interpolationmode  none
attr source  receivedPacketFromUpperLayer
vector 763  CAIN.ueD2DTx[17].nic.mac  CainHopMessageSent:vector  ETV
attr interpolationmode  none
attr title  "# of Sent CAIN hop message, vector"
vector 756  CAIN.ueD2DTx[17].nic.mac  sentPacketToLowerLayer:vector(packetBytes)  ETV
attr interpolationmode  none
attr source  sentPacketToLowerLayer
vector 338  CAIN.ueD2DTx[4].nic.mac  receivedPacketFromLowerLayer:vector(packetBytes)  ETV
attr interpolationmode  none
attr source  receivedPacketFromLowerLayer
vector 340  CAIN.ueD2DTx[4].nic.mac  sentPacketToLowerLayer:vector(packetBytes)  ETV
attr interpolationmode  none
attr source  sentPacketToLowerLayer
vector 690  CAIN.ueD2DTx[15].nic.mac  receivedPacketFromLowerLayer:vector(packetBytes)  ETV
attr interpolationmode  none
attr source  receivedPacketFromLowerLayer
vector 692  CAIN.ueD2DTx[15].nic.mac  sentPacketToLowerLayer:vector(packetBytes)  ETV
attr interpolationmode  none
attr source  sentPacketToLowerLayer
vector 111  CAIN.eNodeB.nic.mac  racpkt:vector  ETV
attr interpolationmode  none
attr title  "eNB received racpkt message, vector"
vector 112  CAIN.eNodeB.nic.mac  racDistanceSignal:vector  ETV
attr interpolationmode  none
attr title  "Rac distance to enb, vector"
vector 113  CAIN.eNodeB.nic.mac  racServedDevsSignal:vector  ETV
attr interpolationmode  none
attr title  "# of devices served on rac arriavall, vector"
vector 106  CAIN.eNodeB.nic.mac  DistanceSignal:vector  ETV
attr interpolationmode  none
attr title  "Distance to enb, vector"
vector 101  CAIN.eNodeB.nic.mac  CainHopMessage:vector  ETV
attr interpolationmode  none
attr title  "eNB received CAIN hop message, vector"
vector 98  CAIN.eNodeB.nic.mac  sentPacketToLowerLayer:vector(packetBytes)  ETV
attr interpolationmode  none
attr source  sentPacketToLowerLayer
vector 1517  CAIN.ueD2DTx[24].tcp  tcpRcvQueueBytes  ETV
vector 1504  CAIN.ueD2DTx[24].tcp  "advertised window"  ETV
vector 1503  CAIN.ueD2DTx[24].tcp  "receive window"  ETV
vector 1506  CAIN.ueD2DTx[24].tcp  "sent ack"  ETV
vector 973  CAIN.ueD2DTx[24].nic.pdcpRrc  receivedPacketFromUpperLayer:vector(packetBytes)  ETV
attr interpolationmode  none
attr source  receivedPacketFromUpperLayer
vector 976  CAIN.ueD2DTx[24].nic.pdcpRrc  sentPacketToLowerLayer:vector(packetBytes)  ETV
attr interpolationmode  none
attr source  sentPacketToLowerLayer
vector 977  CAIN.ueD2DTx[24].nic.mac  receivedPacketFromUpperLayer:vector(packetBytes)  ETV
attr interpolationmode  none
attr source  receivedPacketFromUpperLayer
vector 980  CAIN.ueD2DTx[24].nic.mac  sentPacketToLowerLayer:vector(packetBytes)  ETV
attr interpolationmode  none
attr source  sentPacketToLowerLayer
vector 697  CAIN.ueD2DTx[15].nic.mac  DropedHopMessage:vector  ETV
attr interpolationmode  none
attr title  "Droped Hop CAIN message due to RB not available, vector"
vector 978  CAIN.ueD2DTx[24].nic.mac  receivedPacketFromLowerLayer:vector(packetBytes)  ETV
attr interpolationmode  none
attr source  receivedPacketFromLowerLayer
vector 1541  CAIN.ueD2DTx[8].tcp  tcpRcvQueueBytes  ETV
vector 1528  CAIN.ueD2DTx[8].tcp  "advertised window"  ETV
vector 1527  CAIN.ueD2DTx[8].tcp  "receive window"  ETV
vector 1530  CAIN.ueD2DTx[8].tcp  "sent ack"  ETV
vector 461  CAIN.ueD2DTx[8].nic.pdcpRrc  receivedPacketFromUpperLayer:vector(packetBytes)  ETV
attr interpolationmode  none
attr source  receivedPacketFromUpperLayer
vector 464  CAIN.ueD2DTx[8].nic.pdcpRrc  sentPacketToLowerLayer:vector(packetBytes)  ETV
attr interpolationmode  none
attr source  sentPacketToLowerLayer
vector 465  CAIN.ueD2DTx[8].nic.mac  receivedPacketFromUpperLayer:vector(packetBytes)  ETV
attr interpolationmode  none
attr source  receivedPacketFromUpperLayer
vector 475  CAIN.ueD2DTx[8].nic.mac  CainHopMessageSent:vector  ETV
attr interpolationmode  none
attr title  "# of Sent CAIN hop message, vector"
vector 468  CAIN.ueD2DTx[8].nic.mac  sentPacketToLowerLayer:vector(packetBytes)  ETV
attr interpolationmode  none
attr source  sentPacketToLowerLayer
vector 979  CAIN.ueD2DTx[24].nic.mac  sentPacketToUpperLayer:vector(packetBytes)  ETV
attr interpolationmode  none
attr source  sentPacketToUpperLayer
vector 850  CAIN.ueD2DTx[20].nic.mac  receivedPacketFromLowerLayer:vector(packetBytes)  ETV
attr interpolationmode  none
attr source  receivedPacketFromLowerLayer
vector 852  CAIN.ueD2DTx[20].nic.mac  sentPacketToLowerLayer:vector(packetBytes)  ETV
attr interpolationmode  none
attr source  sentPacketToLowerLayer
vector 115  CAIN.eNodeB.nic.phy  averageCqiUlvect:vector  ETV
attr source  averageCqiUlvect
attr title  "Average Cqi reported in UL, vector"
attr unit  cqi
vector 914  CAIN.ueD2DTx[22].nic.mac  receivedPacketFromLowerLayer:vector(packetBytes)  ETV
attr interpolationmode  none
attr source  receivedPacketFromLowerLayer
vector 916  CAIN.ueD2DTx[22].nic.mac  sentPacketToLowerLayer:vector(packetBytes)  ETV
attr interpolationmode  none
attr source  sentPacketToLowerLayer
vector 1565  CAIN.ueD2DTx[9].tcp  tcpRcvQueueBytes  ETV
vector 1552  CAIN.ueD2DTx[9].tcp  "advertised window"  ETV
vector 1551  CAIN.ueD2DTx[9].tcp  "receive window"  ETV
vector 1554  CAIN.ueD2DTx[9].tcp  "sent ack"  ETV
vector 493  CAIN.ueD2DTx[9].nic.pdcpRrc  receivedPacketFromUpperLayer:vector(packetBytes)  ETV
attr interpolationmode  none
attr source  receivedPacketFromUpperLayer
vector 496  CAIN.ueD2DTx[9].nic.pdcpRrc  sentPacketToLowerLayer:vector(packetBytes)  ETV
attr interpolationmode  none
attr source  sentPacketToLowerLayer
vector 497  CAIN.ueD2DTx[9].nic.mac  receivedPacketFromUpperLayer:vector(packetBytes)  ETV
attr interpolationmode  none
attr source  receivedPacketFromUpperLayer
vector 500  CAIN.ueD2DTx[9].nic.mac  sentPacketToLowerLayer:vector(packetBytes)  ETV
attr interpolationmode  none
attr source  sentPacketToLowerLayer
vector 921  CAIN.ueD2DTx[22].nic.mac  DropedHopMessage:vector  ETV
attr interpolationmode  none
attr title  "Droped Hop CAIN message due to RB not available, vector"
vector 97  CAIN.eNodeB.nic.mac  sentPacketToUpperLayer:vector(packetBytes)  ETV
attr interpolationmode  none
attr source  sentPacketToUpperLayer
vector 92  CAIN.eNodeB.nic.pdcpRrc  receivedPacketFromLowerLayer:vector(packetBytes)  ETV
attr interpolationmode  none
attr source  receivedPacketFromLowerLayer
vector 93  CAIN.eNodeB.nic.pdcpRrc  sentPacketToUpperLayer:vector(packetBytes)  ETV
attr interpolationmode  none
attr source  sentPacketToUpperLayer
vector 86  CAIN.eNodeB.udp  sentPk:vector(packetBytes)  ETV
attr interpolationmode  none
attr source  sentPk
attr title  "packets sent, vector(packetBytes)"
vector 498  CAIN.ueD2DTx[9].nic.mac  receivedPacketFromLowerLayer:vector(packetBytes)  ETV
attr interpolationmode  none
attr source  receivedPacketFromLowerLayer
vector 145  CAIN.eNodeB1.udp  rcvdPk:vector(packetBytes)  ETV
attr interpolationmode  none
attr source  rcvdPk
attr title  "packets received, vector(packetBytes)"
vector 146  CAIN.eNodeB1.udp  passedUpPk:vector(count)  ETV
attr interpolationmode  none
attr title  "packets passed up, vector(count)"
vector 499  CAIN.ueD2DTx[9].nic.mac  sentPacketToUpperLayer:vector(packetBytes)  ETV
attr interpolationmode  none
attr source  sentPacketToUpperLayer
vector 1589  CAIN.ueD2DTx[7].tcp  tcpRcvQueueBytes  ETV
vector 1576  CAIN.ueD2DTx[7].tcp  "advertised window"  ETV
vector 1575  CAIN.ueD2DTx[7].tcp  "receive window"  ETV
vector 1578  CAIN.ueD2DTx[7].tcp  "sent ack"  ETV
vector 429  CAIN.ueD2DTx[7].nic.pdcpRrc  receivedPacketFromUpperLayer:vector(packetBytes)  ETV
attr interpolationmode  none
attr source  receivedPacketFromUpperLayer
vector 432  CAIN.ueD2DTx[7].nic.pdcpRrc  sentPacketToLowerLayer:vector(packetBytes)  ETV
attr interpolationmode  none
attr source  sentPacketToLowerLayer
vector 433  CAIN.ueD2DTx[7].nic.mac  receivedPacketFromUpperLayer:vector(packetBytes)  ETV
attr interpolationmode  none
attr source  receivedPacketFromUpperLayer
vector 436  CAIN.ueD2DTx[7].nic.mac  sentPacketToLowerLayer:vector(packetBytes)  ETV
attr interpolationmode  none
attr source  sentPacketToLowerLayer
vector 1613  CAIN.ueD2DTx[5].tcp  tcpRcvQueueBytes  ETV
vector 1600  CAIN.ueD2DTx[5].tcp  "advertised window"  ETV
vector 1599  CAIN.ueD2DTx[5].tcp  "receive window"  ETV
vector 1602  CAIN.ueD2DTx[5].tcp  "sent ack"  ETV
vector 365  CAIN.ueD2DTx[5].nic.pdcpRrc  receivedPacketFromUpperLayer:vector(packetBytes)  ETV
attr interpolationmode  none
attr source  receivedPacketFromUpperLayer
vector 368  CAIN.ueD2DTx[5].nic.pdcpRrc  sentPacketToLowerLayer:vector(packetBytes)  ETV
attr interpolationmode  none
attr source  sentPacketToLowerLayer
vector 369  CAIN.ueD2DTx[5].nic.mac  receivedPacketFromUpperLayer:vector(packetBytes)  ETV
attr interpolationmode  none
attr source  receivedPacketFromUpperLayer
vector 99  CAIN.eNodeB.nic.mac  measuredItbs:vector  ETV
attr source  measuredItbs
attr title  "TBS index, vector"
attr unit  ""
vector 379  CAIN.ueD2DTx[5].nic.mac  CainHopMessageSent:vector  ETV
attr interpolationmode  none
attr title  "# of Sent CAIN hop message, vector"
vector 372  CAIN.ueD2DTx[5].nic.mac  sentPacketToLowerLayer:vector(packetBytes)  ETV
attr interpolationmode  none
attr source  sentPacketToLowerLayer
vector 434  CAIN.ueD2DTx[7].nic.mac  receivedPacketFromLowerLayer:vector(packetBytes)  ETV
attr interpolationmode  none
attr source  receivedPacketFromLowerLayer
vector 1637  CAIN.ueD2DTx[10].tcp  tcpRcvQueueBytes  ETV
vector 1624  CAIN.ueD2DTx[10].tcp  "advertised window"  ETV
vector 1623  CAIN.ueD2DTx[10].tcp  "receive window"  ETV
vector 1626  CAIN.ueD2DTx[10].tcp  "sent ack"  ETV
vector 525  CAIN.ueD2DTx[10].nic.pdcpRrc  receivedPacketFromUpperLayer:vector(packetBytes)  ETV
attr interpolationmode  none
attr source  receivedPacketFromUpperLayer
vector 528  CAIN.ueD2DTx[10].nic.pdcpRrc  sentPacketToLowerLayer:vector(packetBytes)  ETV
attr interpolationmode  none
attr source  sentPacketToLowerLayer
vector 529  CAIN.ueD2DTx[10].nic.mac  receivedPacketFromUpperLayer:vector(packetBytes)  ETV
attr interpolationmode  none
attr source  receivedPacketFromUpperLayer
vector 1661  CAIN.ueD2DTx[13].tcp  tcpRcvQueueBytes  ETV
vector 1648  CAIN.ueD2DTx[13].tcp  "advertised window"  ETV
vector 1647  CAIN.ueD2DTx[13].tcp  "receive window"  ETV
vector 1650  CAIN.ueD2DTx[13].tcp  "sent ack"  ETV
vector 621  CAIN.ueD2DTx[13].nic.pdcpRrc  receivedPacketFromUpperLayer:vector(packetBytes)  ETV
attr interpolationmode  none
attr source  receivedPacketFromUpperLayer
vector 624  CAIN.ueD2DTx[13].nic.pdcpRrc  sentPacketToLowerLayer:vector(packetBytes)  ETV
attr interpolationmode  none
attr source  sentPacketToLowerLayer
vector 625  CAIN.ueD2DTx[13].nic.mac  receivedPacketFromUpperLayer:vector(packetBytes)  ETV
attr interpolationmode  none
attr source  receivedPacketFromUpperLayer
vector 538  CAIN.ueD2DTx[10].nic.mac  CainMessageSent:vector  ETV
attr interpolationmode  none
attr title  "# of Sent CAIN message, vector"
vector 532  CAIN.ueD2DTx[10].nic.mac  sentPacketToLowerLayer:vector(packetBytes)  ETV
attr interpolationmode  none
attr source  sentPacketToLowerLayer
vector 635  CAIN.ueD2DTx[13].nic.mac  CainHopMessageSent:vector  ETV
attr interpolationmode  none
attr title  "# of Sent CAIN hop message, vector"
vector 628  CAIN.ueD2DTx[13].nic.mac  sentPacketToLowerLayer:vector(packetBytes)  ETV
attr interpolationmode  none
attr source  sentPacketToLowerLayer
vector 530  CAIN.ueD2DTx[10].nic.mac  receivedPacketFromLowerLayer:vector(packetBytes)  ETV
attr interpolationmode  none
attr source  receivedPacketFromLowerLayer
vector 1685  CAIN.ueD2DTx[0].tcp  tcpRcvQueueBytes  ETV
vector 1672  CAIN.ueD2DTx[0].tcp  "advertised window"  ETV
vector 1671  CAIN.ueD2DTx[0].tcp  "receive window"  ETV
vector 1674  CAIN.ueD2DTx[0].tcp  "sent ack"  ETV
vector 205  CAIN.ueD2DTx[0].nic.pdcpRrc  receivedPacketFromUpperLayer:vector(packetBytes)  ETV
attr interpolationmode  none
attr source  receivedPacketFromUpperLayer
vector 208  CAIN.ueD2DTx[0].nic.pdcpRrc  sentPacketToLowerLayer:vector(packetBytes)  ETV
attr interpolationmode  none
attr source  sentPacketToLowerLayer
vector 209  CAIN.ueD2DTx[0].nic.mac  receivedPacketFromUpperLayer:vector(packetBytes)  ETV
attr interpolationmode  none
attr source  receivedPacketFromUpperLayer
vector 219  CAIN.ueD2DTx[0].nic.mac  CainHopMessageSent:vector  ETV
attr interpolationmode  none
attr title  "# of Sent CAIN hop message, vector"
vector 212  CAIN.ueD2DTx[0].nic.mac  sentPacketToLowerLayer:vector(packetBytes)  ETV
attr interpolationmode  none
attr source  sentPacketToLowerLayer
vector 435  CAIN.ueD2DTx[7].nic.mac  sentPacketToUpperLayer:vector(packetBytes)  ETV
attr interpolationmode  none
attr source  sentPacketToUpperLayer
vector 722  CAIN.ueD2DTx[16].nic.mac  receivedPacketFromLowerLayer:vector(packetBytes)  ETV
attr interpolationmode  none
attr source  receivedPacketFromLowerLayer
vector 724  CAIN.ueD2DTx[16].nic.mac  sentPacketToLowerLayer:vector(packetBytes)  ETV
attr interpolationmode  none
attr source  sentPacketToLowerLayer
vector 100  CAIN.eNodeB.nic.mac  CainMessage:vector  ETV
attr interpolationmode  none
attr title  "eNB received CAIN message, vector"
vector 728  CAIN.ueD2DTx[16].nic.mac  DropedCainMessage:vector  ETV
attr interpolationmode  none
attr title  "Droped CAIN message due to RB not available, vector"
vector 729  CAIN.ueD2DTx[16].nic.mac  DropedHopMessage:vector  ETV
attr interpolationmode  none
attr title  "Droped Hop CAIN message due to RB not available, vector"
vector 109  CAIN.eNodeB.nic.mac  ServedHopDevs:vector  ETV
attr interpolationmode  none
attr title  "# of devices served on hop forwarding, vector"
vector 1709  CAIN.ueD2DTx[21].tcp  tcpRcvQueueBytes  ETV
vector 1696  CAIN.ueD2DTx[21].tcp  "advertised window"  ETV
vector 1695  CAIN.ueD2DTx[21].tcp  "receive window"  ETV
vector 1698  CAIN.ueD2DTx[21].tcp  "sent ack"  ETV
vector 877  CAIN.ueD2DTx[21].nic.pdcpRrc  receivedPacketFromUpperLayer:vector(packetBytes)  ETV
attr interpolationmode  none
attr source  receivedPacketFromUpperLayer
vector 880  CAIN.ueD2DTx[21].nic.pdcpRrc  sentPacketToLowerLayer:vector(packetBytes)  ETV
attr interpolationmode  none
attr source  sentPacketToLowerLayer
vector 881  CAIN.ueD2DTx[21].nic.mac  receivedPacketFromUpperLayer:vector(packetBytes)  ETV
attr interpolationmode  none
attr source  receivedPacketFromUpperLayer
vector 891  CAIN.ueD2DTx[21].nic.mac  CainHopMessageSent:vector  ETV
attr interpolationmode  none
attr title  "# of Sent CAIN hop message, vector"
vector 884  CAIN.ueD2DTx[21].nic.mac  sentPacketToLowerLayer:vector(packetBytes)  ETV
attr interpolationmode  none
attr source  sentPacketToLowerLayer
vector 1733  CAIN.ueD2DTx[20].tcp  tcpRcvQueueBytes  ETV
vector 1720  CAIN.ueD2DTx[20].tcp  "advertised window"  ETV
vector 1719  CAIN.ueD2DTx[20].tcp  "receive window"  ETV
vector 1722  CAIN.ueD2DTx[20].tcp  "sent ack"  ETV
vector 845  CAIN.ueD2DTx[20].nic.pdcpRrc  receivedPacketFromUpperLayer:vector(packetBytes)  ETV
attr interpolationmode  none
attr source  receivedPacketFromUpperLayer
vector 848  CAIN.ueD2DTx[20].nic.pdcpRrc  sentPacketToLowerLayer:vector(packetBytes)  ETV
attr interpolationmode  none
attr source  sentPacketToLowerLayer
vector 849  CAIN.ueD2DTx[20].nic.mac  receivedPacketFromUpperLayer:vector(packetBytes)  ETV
attr interpolationmode  none
attr source  receivedPacketFromUpperLayer
vector 858  CAIN.ueD2DTx[20].nic.mac  CainMessageSent:vector  ETV
attr interpolationmode  none
attr title  "# of Sent CAIN message, vector"
vector 402  CAIN.ueD2DTx[6].nic.mac  receivedPacketFromLowerLayer:vector(packetBytes)  ETV
attr interpolationmode  none
attr source  receivedPacketFromLowerLayer
vector 404  CAIN.ueD2DTx[6].nic.mac  sentPacketToLowerLayer:vector(packetBytes)  ETV
attr interpolationmode  none
attr source  sentPacketToLowerLayer
vector 408  CAIN.ueD2DTx[6].nic.mac  DropedCainMessage:vector  ETV
attr interpolationmode  none
attr title  "Droped CAIN message due to RB not available, vector"
vector 1757  CAIN.ueD2DTx[16].tcp  tcpRcvQueueBytes  ETV
vector 1744  CAIN.ueD2DTx[16].tcp  "advertised window"  ETV
vector 1743  CAIN.ueD2DTx[16].tcp  "receive window"  ETV
vector 1746  CAIN.ueD2DTx[16].tcp  "sent ack"  ETV
vector 717  CAIN.ueD2DTx[16].nic.pdcpRrc  receivedPacketFromUpperLayer:vector(packetBytes)  ETV
attr interpolationmode  none
attr source  receivedPacketFromUpperLayer
vector 720  CAIN.ueD2DTx[16].nic.pdcpRrc  sentPacketToLowerLayer:vector(packetBytes)  ETV
attr interpolationmode  none
attr source  sentPacketToLowerLayer
vector 721  CAIN.ueD2DTx[16].nic.mac  receivedPacketFromUpperLayer:vector(packetBytes)  ETV
attr interpolationmode  none
attr source  receivedPacketFromUpperLayer
vector 1781  CAIN.ueD2DTx[22].tcp  tcpRcvQueueBytes  ETV
vector 1768  CAIN.ueD2DTx[22].tcp  "advertised window"  ETV
vector 1767  CAIN.ueD2DTx[22].tcp  "receive window"  ETV
vector 1770  CAIN.ueD2DTx[22].tcp  "sent ack"  ETV
vector 909  CAIN.ueD2DTx[22].nic.pdcpRrc  receivedPacketFromUpperLayer:vector(packetBytes)  ETV
attr interpolationmode  none
attr source  receivedPacketFromUpperLayer
vector 912  CAIN.ueD2DTx[22].nic.pdcpRrc  sentPacketToLowerLayer:vector(packetBytes)  ETV
attr interpolationmode  none
attr source  sentPacketToLowerLayer
vector 913  CAIN.ueD2DTx[22].nic.mac  receivedPacketFromUpperLayer:vector(packetBytes)  ETV
attr interpolationmode  none
attr source  receivedPacketFromUpperLayer
vector 723  CAIN.ueD2DTx[16].nic.mac  sentPacketToUpperLayer:vector(packetBytes)  ETV
attr interpolationmode  none
attr source  sentPacketToUpperLayer
vector 149  CAIN.eNodeB1.nic.pdcpRrc  receivedPacketFromUpperLayer:vector(packetBytes)  ETV
attr interpolationmode  none
attr source  receivedPacketFromUpperLayer
vector 152  CAIN.eNodeB1.nic.pdcpRrc  sentPacketToLowerLayer:vector(packetBytes)  ETV
attr interpolationmode  none
attr source  sentPacketToLowerLayer
vector 1461  CAIN.eNodeB1.sctp  "SendQueue of Association 5"  ETV
vector 1225  CAIN.eNodeB1.sctp  "TSN Sent 5:10.0.5.1"  ETV
vector 1232  CAIN.eNodeB1.sctp  "Outstanding Bytes 5:10.0.5.1"  ETV
vector 1030  CAIN.eNodeB1.sctp  "Outstanding Bytes 4:Total"  ETV
vector 1231  CAIN.eNodeB1.sctp  "Queued Sent Bytes 5:10.0.5.1"  ETV
vector 1029  CAIN.eNodeB1.sctp  "Queued Sent Bytes 4:Total"  ETV
vector 153  CAIN.eNodeB1.nic.mac  receivedPacketFromUpperLayer:vector(packetBytes)  ETV
attr interpolationmode  none
attr source  receivedPacketFromUpperLayer
vector 108  CAIN.eNodeB.nic.mac  ServedDevs:vector  ETV
attr interpolationmode  none
attr title  "# of devices served on cain forwarding, vector"
vector 1074  CAIN.eNodeB.sctp  "TSN Received 1:10.0.5.2"  ETV
vector 1050  CAIN.eNodeB.sctp  "Queued Received Bytes 1:Total"  ETV
vector 1046  CAIN.eNodeB.sctp  "Advertised Receiver Window 1"  ETV
vector 1055  CAIN.eNodeB.sctp  "Number of Total Gap Blocks Stored 1"  ETV
vector 1056  CAIN.eNodeB.sctp  "Number of Revokable Gap Blocks Stored 1"  ETV
vector 1057  CAIN.eNodeB.sctp  "Number of Non-Revokable Gap Blocks Stored 1"  ETV
vector 1058  CAIN.eNodeB.sctp  "Number of Duplicate TSNs Stored 1"  ETV
vector 1062  CAIN.eNodeB.sctp  "Length of SACK Sent 1"  ETV
vector 1059  CAIN.eNodeB.sctp  "Number of Revokable Gap Blocks Sent 1"  ETV
vector 1060  CAIN.eNodeB.sctp  "Number of Non-Revokable Gap Blocks Sent 1"  ETV
vector 1061  CAIN.eNodeB.sctp  "Number of Duplicate TSNs Sent 1"  ETV
vector 1066  CAIN.eNodeB.sctp  "End to End Delay of Association 1"  ETV
vector 141  CAIN.eNodeB.x2App[0].client  rcvdPk:vector(packetBytes)  ETV
attr interpolationmode  none
attr source  rcvdPk
attr title  "packets received, vector(packetBytes)"
vector 1460  CAIN.eNodeB1.sctp  "Number of Gap Blocks in Last SACK of Association 5"  ETV
vector 1031  CAIN.eNodeB1.sctp  "Number of Revokable Gap Blocks in SACK 4"  ETV
vector 1032  CAIN.eNodeB1.sctp  "Number of Non-Revokable Gap Blocks in SACK 4"  ETV
vector 1242  CAIN.eNodeB1.sctp  "TSN Acked CumAck 5:10.0.5.1"  ETV
vector 1208  CAIN.eNodeB1.sctp  "Number of Gap Acked Chunks in Last SACK 5:10.0.2.2"  ETV
vector 1209  CAIN.eNodeB1.sctp  "Number of Non-Revokable Gap Acked Chunks in Last SACK 5:10.0.2.2"  ETV
vector 1210  CAIN.eNodeB1.sctp  "Number of Gap Missed Chunks in Last SACK 5:10.0.2.2"  ETV
vector 1181  CAIN.eNodeB1.sctp  "Number of Gap Acked Chunks in Last SACK 5:10.0.4.1"  ETV
vector 1182  CAIN.eNodeB1.sctp  "Number of Non-Revokable Gap Acked Chunks in Last SACK 5:10.0.4.1"  ETV
vector 1183  CAIN.eNodeB1.sctp  "Number of Gap Missed Chunks in Last SACK 5:10.0.4.1"  ETV
vector 1235  CAIN.eNodeB1.sctp  "Number of Gap Acked Chunks in Last SACK 5:10.0.5.1"  ETV
vector 1236  CAIN.eNodeB1.sctp  "Number of Non-Revokable Gap Acked Chunks in Last SACK 5:10.0.5.1"  ETV
vector 1237  CAIN.eNodeB1.sctp  "Number of Gap Missed Chunks in Last SACK 5:10.0.5.1"  ETV
vector 1041  CAIN.eNodeB1.sctp  "Arwnd in Last SACK 4"  ETV
vector 1244  CAIN.eNodeB1.sctp  "TSN PseudoCumAck 5:10.0.5.1"  ETV
vector 1245  CAIN.eNodeB1.sctp  "TSN RTXPseudoCumAck 5:10.0.5.1"  ETV
vector 1238  CAIN.eNodeB1.sctp  "Partial Bytes Acked 5:10.0.5.1"  ETV
vector 915  CAIN.ueD2DTx[22].nic.mac  sentPacketToUpperLayer:vector(packetBytes)  ETV
attr interpolationmode  none
attr source  sentPacketToUpperLayer
vector 1805  CAIN.ueD2DTx[23].tcp  tcpRcvQueueBytes  ETV
vector 1792  CAIN.ueD2DTx[23].tcp  "advertised window"  ETV
vector 1791  CAIN.ueD2DTx[23].tcp  "receive window"  ETV
vector 1794  CAIN.ueD2DTx[23].tcp  "sent ack"  ETV
vector 941  CAIN.ueD2DTx[23].nic.pdcpRrc  receivedPacketFromUpperLayer:vector(packetBytes)  ETV
attr interpolationmode  none
attr source  receivedPacketFromUpperLayer
vector 944  CAIN.ueD2DTx[23].nic.pdcpRrc  sentPacketToLowerLayer:vector(packetBytes)  ETV
attr interpolationmode  none
attr source  sentPacketToLowerLayer
vector 945  CAIN.ueD2DTx[23].nic.mac  receivedPacketFromUpperLayer:vector(packetBytes)  ETV
attr interpolationmode  none
attr source  receivedPacketFromUpperLayer
vector 955  CAIN.ueD2DTx[23].nic.mac  CainHopMessageSent:vector  ETV
attr interpolationmode  none
attr title  "# of Sent CAIN hop message, vector"
vector 948  CAIN.ueD2DTx[23].nic.mac  sentPacketToLowerLayer:vector(packetBytes)  ETV
attr interpolationmode  none
attr source  sentPacketToLowerLayer
vector 1829  CAIN.ueD2DTx[18].tcp  tcpRcvQueueBytes  ETV
vector 1816  CAIN.ueD2DTx[18].tcp  "advertised window"  ETV
vector 1815  CAIN.ueD2DTx[18].tcp  "receive window"  ETV
vector 1818  CAIN.ueD2DTx[18].tcp  "sent ack"  ETV
vector 781  CAIN.ueD2DTx[18].nic.pdcpRrc  receivedPacketFromUpperLayer:vector(packetBytes)  ETV
attr interpolationmode  none
attr source  receivedPacketFromUpperLayer
vector 784  CAIN.ueD2DTx[18].nic.pdcpRrc  sentPacketToLowerLayer:vector(packetBytes)  ETV
attr interpolationmode  none
attr source  sentPacketToLowerLayer
vector 785  CAIN.ueD2DTx[18].nic.mac  receivedPacketFromUpperLayer:vector(packetBytes)  ETV
attr interpolationmode  none
attr source  receivedPacketFromUpperLayer
vector 795  CAIN.ueD2DTx[18].nic.mac  CainHopMessageSent:vector  ETV
attr interpolationmode  none
attr title  "# of Sent CAIN hop message, vector"
vector 788  CAIN.ueD2DTx[18].nic.mac  sentPacketToLowerLayer:vector(packetBytes)  ETV
attr interpolationmode  none
attr source  sentPacketToLowerLayer
vector 1853  CAIN.ueD2DTx[14].tcp  tcpRcvQueueBytes  ETV
vector 1840  CAIN.ueD2DTx[14].tcp  "advertised window"  ETV
vector 1839  CAIN.ueD2DTx[14].tcp  "receive window"  ETV
vector 1842  CAIN.ueD2DTx[14].tcp  "sent ack"  ETV
vector 653  CAIN.ueD2DTx[14].nic.pdcpRrc  receivedPacketFromUpperLayer:vector(packetBytes)  ETV
attr interpolationmode  none
attr source  receivedPacketFromUpperLayer
vector 656  CAIN.ueD2DTx[14].nic.pdcpRrc  sentPacketToLowerLayer:vector(packetBytes)  ETV
attr interpolationmode  none
attr source  sentPacketToLowerLayer
vector 657  CAIN.ueD2DTx[14].nic.mac  receivedPacketFromUpperLayer:vector(packetBytes)  ETV
attr interpolationmode  none
attr source  receivedPacketFromUpperLayer
vector 667  CAIN.ueD2DTx[14].nic.mac  CainHopMessageSent:vector  ETV
attr interpolationmode  none
attr title  "# of Sent CAIN hop message, vector"
vector 660  CAIN.ueD2DTx[14].nic.mac  sentPacketToLowerLayer:vector(packetBytes)  ETV
attr interpolationmode  none
attr source  sentPacketToLowerLayer
vector 154  CAIN.eNodeB1.nic.mac  receivedPacketFromLowerLayer:vector(packetBytes)  ETV
attr interpolationmode  none
attr source  receivedPacketFromLowerLayer
vector 1877  CAIN.ueD2DTx[11].tcp  tcpRcvQueueBytes  ETV
vector 1864  CAIN.ueD2DTx[11].tcp  "advertised window"  ETV
vector 1863  CAIN.ueD2DTx[11].tcp  "receive window"  ETV
vector 1866  CAIN.ueD2DTx[11].tcp  "sent ack"  ETV
vector 557  CAIN.ueD2DTx[11].nic.pdcpRrc  receivedPacketFromUpperLayer:vector(packetBytes)  ETV
attr interpolationmode  none
attr source  receivedPacketFromUpperLayer
vector 560  CAIN.ueD2DTx[11].nic.pdcpRrc  sentPacketToLowerLayer:vector(packetBytes)  ETV
attr interpolationmode  none
attr source  sentPacketToLowerLayer
vector 561  CAIN.ueD2DTx[11].nic.mac  receivedPacketFromUpperLayer:vector(packetBytes)  ETV
attr interpolationmode  none
attr source  receivedPacketFromUpperLayer
vector 564  CAIN.ueD2DTx[11].nic.mac  sentPacketToLowerLayer:vector(packetBytes)  ETV
attr interpolationmode  none
attr source  sentPacketToLowerLayer
vector 562  CAIN.ueD2DTx[11].nic.mac  receivedPacketFromLowerLayer:vector(packetBytes)  ETV
attr interpolationmode  none
attr source  receivedPacketFromLowerLayer
vector 409  CAIN.ueD2DTx[6].nic.mac  DropedHopMessage:vector  ETV
attr interpolationmode  none
attr title  "Droped Hop CAIN message due to RB not available, vector"
vector 117  CAIN.eNodeB.pppIf.queue  rcvdPk:vector(packetBytes)  ETV
attr interpolationmode  none
attr title  "received packets, vector(packetBytes)"
vector 119  CAIN.eNodeB.pppIf.queue  queueingTime:vector  ETV
attr interpolationmode  none
attr title  "queueing time, vector"
vector 126  CAIN.eNodeB.pppIf.ppp  rcvdPkFromHL:vector(packetBytes)  ETV
attr interpolationmode  none
attr source  packetReceivedFromUpper
attr title  "packets received from higher layer, vector(packetBytes)"
vector 122  CAIN.eNodeB.pppIf.ppp  txPk:vector(packetBytes)  ETV
attr interpolationmode  none
attr source  packetSentToLower
attr title  "packets transmitted, vector(packetBytes)"
vector 59  CAIN.pgw.ppp[0].ppp  rxPkOk:vector(packetBytes)  ETV
attr interpolationmode  none
attr source  rxPkOk
attr title  "packets received OK, vector(packetBytes)"
vector 63  CAIN.pgw.ppp[0].ppp  passedUpPk:vector(packetBytes)  ETV
attr interpolationmode  none
attr source  packetSentToUpper
attr title  "packets passed to higher layer, vector(packetBytes)"
vector 44  CAIN.pgw.udp  rcvdPk:vector(packetBytes)  ETV
attr interpolationmode  none
attr source  rcvdPk
attr title  "packets received, vector(packetBytes)"
vector 45  CAIN.pgw.udp  passedUpPk:vector(count)  ETV
attr interpolationmode  none
attr title  "packets passed up, vector(count)"
vector 43  CAIN.pgw.udp  sentPk:vector(packetBytes)  ETV
attr interpolationmode  none
attr source  sentPk
attr title  "packets sent, vector(packetBytes)"
vector 64  CAIN.pgw.ppp[1].queue  rcvdPk:vector(packetBytes)  ETV
attr interpolationmode  none
attr title  "received packets, vector(packetBytes)"
vector 66  CAIN.pgw.ppp[1].queue  queueingTime:vector  ETV
attr interpolationmode  none
attr title  "queueing time, vector"
vector 73  CAIN.pgw.ppp[1].ppp  rcvdPkFromHL:vector(packetBytes)  ETV
attr interpolationmode  none
attr source  packetReceivedFromUpper
attr title  "packets received from higher layer, vector(packetBytes)"
vector 69  CAIN.pgw.ppp[1].ppp  txPk:vector(packetBytes)  ETV
attr interpolationmode  none
attr source  packetSentToLower
attr title  "packets transmitted, vector(packetBytes)"
vector 181  CAIN.eNodeB1.pppIf.ppp  rxPkOk:vector(packetBytes)  ETV
attr interpolationmode  none
attr source  rxPkOk
attr title  "packets received OK, vector(packetBytes)"
vector 185  CAIN.eNodeB1.pppIf.ppp  passedUpPk:vector(packetBytes)  ETV
attr interpolationmode  none
attr source  packetSentToUpper
attr title  "packets passed to higher layer, vector(packetBytes)"
vector 563  CAIN.ueD2DTx[11].nic.mac  sentPacketToUpperLayer:vector(packetBytes)  ETV
attr interpolationmode  none
attr source  sentPacketToUpperLayer
vector 1901  CAIN.ueD2DTx[4].tcp  tcpRcvQueueBytes  ETV
vector 1888  CAIN.ueD2DTx[4].tcp  "advertised window"  ETV
vector 1887  CAIN.ueD2DTx[4].tcp  "receive window"  ETV
vector 1890  CAIN.ueD2DTx[4].tcp  "sent ack"  ETV
vector 333  CAIN.ueD2DTx[4].nic.pdcpRrc  receivedPacketFromUpperLayer:vector(packetBytes)  ETV
attr interpolationmode  none
attr source  receivedPacketFromUpperLayer
vector 336  CAIN.ueD2DTx[4].nic.pdcpRrc  sentPacketToLowerLayer:vector(packetBytes)  ETV
attr interpolationmode  none
attr source  sentPacketToLowerLayer
vector 337  CAIN.ueD2DTx[4].nic.mac  receivedPacketFromUpperLayer:vector(packetBytes)  ETV
attr interpolationmode  none
attr source  receivedPacketFromUpperLayer
vector 169  CAIN.eNodeB1.nic.mac  racpkt:vector  ETV
attr interpolationmode  none
attr title  "eNB received racpkt message, vector"
vector 170  CAIN.eNodeB1.nic.mac  racDistanceSignal:vector  ETV
attr interpolationmode  none
attr title  "Rac distance to enb, vector"
vector 171  CAIN.eNodeB1.nic.mac  racServedDevsSignal:vector  ETV
attr interpolationmode  none
attr title  "# of devices served on rac arriavall, vector"
vector 156  CAIN.eNodeB1.nic.mac  sentPacketToLowerLayer:vector(packetBytes)  ETV
attr interpolationmode  none
attr source  sentPacketToLowerLayer
vector 1925  CAIN.ueD2DTx[12].tcp  tcpRcvQueueBytes  ETV
vector 1912  CAIN.ueD2DTx[12].tcp  "advertised window"  ETV
vector 1911  CAIN.ueD2DTx[12].tcp  "receive window"  ETV
vector 1914  CAIN.ueD2DTx[12].tcp  "sent ack"  ETV
vector 589  CAIN.ueD2DTx[12].nic.pdcpRrc  receivedPacketFromUpperLayer:vector(packetBytes)  ETV
attr interpolationmode  none
attr source  receivedPacketFromUpperLayer
vector 592  CAIN.ueD2DTx[12].nic.pdcpRrc  sentPacketToLowerLayer:vector(packetBytes)  ETV
attr interpolationmode  none
attr source  sentPacketToLowerLayer
vector 593  CAIN.ueD2DTx[12].nic.mac  receivedPacketFromUpperLayer:vector(packetBytes)  ETV
attr interpolationmode  none
attr source  receivedPacketFromUpperLayer
vector 596  CAIN.ueD2DTx[12].nic.mac  sentPacketToLowerLayer:vector(packetBytes)  ETV
attr interpolationmode  none
attr source  sentPacketToLowerLayer
vector 1949  CAIN.ueD2DTx[6].tcp  tcpRcvQueueBytes  ETV
vector 1936  CAIN.ueD2DTx[6].tcp  "advertised window"  ETV
vector 1935  CAIN.ueD2DTx[6].tcp  "receive window"  ETV
vector 1938  CAIN.ueD2DTx[6].tcp  "sent ack"  ETV
vector 397  CAIN.ueD2DTx[6].nic.pdcpRrc  receivedPacketFromUpperLayer:vector(packetBytes)  ETV
attr interpolationmode  none
attr source  receivedPacketFromUpperLayer
vector 400  CAIN.ueD2DTx[6].nic.pdcpRrc  sentPacketToLowerLayer:vector(packetBytes)  ETV
attr interpolationmode  none
attr source  sentPacketToLowerLayer
vector 401  CAIN.ueD2DTx[6].nic.mac  receivedPacketFromUpperLayer:vector(packetBytes)  ETV
attr interpolationmode  none
attr source  receivedPacketFromUpperLayer
vector 594  CAIN.ueD2DTx[12].nic.mac  receivedPacketFromLowerLayer:vector(packetBytes)  ETV
attr interpolationmode  none
attr source  receivedPacketFromLowerLayer
vector 1973  CAIN.ueD2DTx[1].tcp  tcpRcvQueueBytes  ETV
vector 1960  CAIN.ueD2DTx[1].tcp  "advertised window"  ETV
vector 1959  CAIN.ueD2DTx[1].tcp  "receive window"  ETV
vector 1962  CAIN.ueD2DTx[1].tcp  "sent ack"  ETV
vector 237  CAIN.ueD2DTx[1].nic.pdcpRrc  receivedPacketFromUpperLayer:vector(packetBytes)  ETV
attr interpolationmode  none
attr source  receivedPacketFromUpperLayer
vector 240  CAIN.ueD2DTx[1].nic.pdcpRrc  sentPacketToLowerLayer:vector(packetBytes)  ETV
attr interpolationmode  none
attr source  sentPacketToLowerLayer
vector 241  CAIN.ueD2DTx[1].nic.mac  receivedPacketFromUpperLayer:vector(packetBytes)  ETV
attr interpolationmode  none
attr source  receivedPacketFromUpperLayer
vector 244  CAIN.ueD2DTx[1].nic.mac  sentPacketToLowerLayer:vector(packetBytes)  ETV
attr interpolationmode  none
attr source  sentPacketToLowerLayer
vector 403  CAIN.ueD2DTx[6].nic.mac  sentPacketToUpperLayer:vector(packetBytes)  ETV
attr interpolationmode  none
attr source  sentPacketToUpperLayer
vector 1997  CAIN.ueD2DTx[15].tcp  tcpRcvQueueBytes  ETV
vector 1984  CAIN.ueD2DTx[15].tcp  "advertised window"  ETV
vector 1983  CAIN.ueD2DTx[15].tcp  "receive window"  ETV
vector 1986  CAIN.ueD2DTx[15].tcp  "sent ack"  ETV
vector 685  CAIN.ueD2DTx[15].nic.pdcpRrc  receivedPacketFromUpperLayer:vector(packetBytes)  ETV
attr interpolationmode  none
attr source  receivedPacketFromUpperLayer
vector 688  CAIN.ueD2DTx[15].nic.pdcpRrc  sentPacketToLowerLayer:vector(packetBytes)  ETV
attr interpolationmode  none
attr source  sentPacketToLowerLayer
vector 689  CAIN.ueD2DTx[15].nic.mac  receivedPacketFromUpperLayer:vector(packetBytes)  ETV
attr interpolationmode  none
attr source  receivedPacketFromUpperLayer
vector 242  CAIN.ueD2DTx[1].nic.mac  receivedPacketFromLowerLayer:vector(packetBytes)  ETV
attr interpolationmode  none
attr source  receivedPacketFromLowerLayer
vector 859  CAIN.ueD2DTx[20].nic.mac  CainHopMessageSent:vector  ETV
attr interpolationmode  none
attr title  "# of Sent CAIN hop message, vector"
vector 2021  CAIN.ueD2DTx[2].tcp  tcpRcvQueueBytes  ETV
vector 2008  CAIN.ueD2DTx[2].tcp  "advertised window"  ETV
vector 2007  CAIN.ueD2DTx[2].tcp  "receive window"  ETV
vector 2010  CAIN.ueD2DTx[2].tcp  "sent ack"  ETV
vector 269  CAIN.ueD2DTx[2].nic.pdcpRrc  receivedPacketFromUpperLayer:vector(packetBytes)  ETV
attr interpolationmode  none
attr source  receivedPacketFromUpperLayer
vector 272  CAIN.ueD2DTx[2].nic.pdcpRrc  sentPacketToLowerLayer:vector(packetBytes)  ETV
attr interpolationmode  none
attr source  sentPacketToLowerLayer
vector 273  CAIN.ueD2DTx[2].nic.mac  receivedPacketFromUpperLayer:vector(packetBytes)  ETV
attr interpolationmode  none
attr source  receivedPacketFromUpperLayer
vector 2045  CAIN.ueD2DTx[19].tcp  tcpRcvQueueBytes  ETV
vector 2032  CAIN.ueD2DTx[19].tcp  "advertised window"  ETV
vector 2031  CAIN.ueD2DTx[19].tcp  "receive window"  ETV
vector 2034  CAIN.ueD2DTx[19].tcp  "sent ack"  ETV
vector 813  CAIN.ueD2DTx[19].nic.pdcpRrc  receivedPacketFromUpperLayer:vector(packetBytes)  ETV
attr interpolationmode  none
attr source  receivedPacketFromUpperLayer
vector 816  CAIN.ueD2DTx[19].nic.pdcpRrc  sentPacketToLowerLayer:vector(packetBytes)  ETV
attr interpolationmode  none
attr source  sentPacketToLowerLayer
vector 817  CAIN.ueD2DTx[19].nic.mac  receivedPacketFromUpperLayer:vector(packetBytes)  ETV
attr interpolationmode  none
attr source  receivedPacketFromUpperLayer
vector 276  CAIN.ueD2DTx[2].nic.mac  sentPacketToLowerLayer:vector(packetBytes)  ETV
attr interpolationmode  none
attr source  sentPacketToLowerLayer
vector 691  CAIN.ueD2DTx[15].nic.mac  sentPacketToUpperLayer:vector(packetBytes)  ETV
attr interpolationmode  none
attr source  sentPacketToUpperLayer
vector 820  CAIN.ueD2DTx[19].nic.mac  sentPacketToLowerLayer:vector(packetBytes)  ETV
attr interpolationmode  none
attr source  sentPacketToLowerLayer
vector 274  CAIN.ueD2DTx[2].nic.mac  receivedPacketFromLowerLayer:vector(packetBytes)  ETV
attr interpolationmode  none
attr source  receivedPacketFromLowerLayer
vector 818  CAIN.ueD2DTx[19].nic.mac  receivedPacketFromLowerLayer:vector(packetBytes)  ETV
attr interpolationmode  none
attr source  receivedPacketFromLowerLayer
vector 819  CAIN.ueD2DTx[19].nic.mac  sentPacketToUpperLayer:vector(packetBytes)  ETV
attr interpolationmode  none
attr source  sentPacketToUpperLayer
vector 2069  CAIN.ueD2DTx[3].tcp  tcpRcvQueueBytes  ETV
vector 2056  CAIN.ueD2DTx[3].tcp  "advertised window"  ETV
vector 2055  CAIN.ueD2DTx[3].tcp  "receive window"  ETV
vector 2058  CAIN.ueD2DTx[3].tcp  "sent ack"  ETV
vector 301  CAIN.ueD2DTx[3].nic.pdcpRrc  receivedPacketFromUpperLayer:vector(packetBytes)  ETV
attr interpolationmode  none
attr source  receivedPacketFromUpperLayer
vector 304  CAIN.ueD2DTx[3].nic.pdcpRrc  sentPacketToLowerLayer:vector(packetBytes)  ETV
attr interpolationmode  none
attr source  sentPacketToLowerLayer
vector 305  CAIN.ueD2DTx[3].nic.mac  receivedPacketFromUpperLayer:vector(packetBytes)  ETV
attr interpolationmode  none
attr source  receivedPacketFromUpperLayer
vector 315  CAIN.ueD2DTx[3].nic.mac  CainHopMessageSent:vector  ETV
attr interpolationmode  none
attr title  "# of Sent CAIN hop message, vector"
vector 308  CAIN.ueD2DTx[3].nic.mac  sentPacketToLowerLayer:vector(packetBytes)  ETV
attr interpolationmode  none
attr source  sentPacketToLowerLayer
vector 157  CAIN.eNodeB1.nic.mac  measuredItbs:vector  ETV
attr source  measuredItbs
attr title  "TBS index, vector"
attr unit  ""
vector 155  CAIN.eNodeB1.nic.mac  sentPacketToUpperLayer:vector(packetBytes)  ETV
attr interpolationmode  none
attr source  sentPacketToUpperLayer
vector 228  CAIN.ueD2DTx[0].nic.phy  averageCqiDlvect:vector  ETV
attr source  averageCqiDlvect
attr title  "Average Cqi reported in DL, vector"
attr unit  cqi
vector 210  CAIN.ueD2DTx[0].nic.mac  receivedPacketFromLowerLayer:vector(packetBytes)  ETV
attr interpolationmode  none
attr source  receivedPacketFromLowerLayer
vector 211  CAIN.ueD2DTx[0].nic.mac  sentPacketToUpperLayer:vector(packetBytes)  ETV
attr interpolationmode  none
attr source  sentPacketToUpperLayer
vector 206  CAIN.ueD2DTx[0].nic.pdcpRrc  receivedPacketFromLowerLayer:vector(packetBytes)  ETV
attr interpolationmode  none
attr source  receivedPacketFromLowerLayer
vector 207  CAIN.ueD2DTx[0].nic.pdcpRrc  sentPacketToUpperLayer:vector(packetBytes)  ETV
attr interpolationmode  none
attr source  sentPacketToUpperLayer
vector 754  CAIN.ueD2DTx[17].nic.mac  receivedPacketFromLowerLayer:vector(packetBytes)  ETV
attr interpolationmode  none
attr source  receivedPacketFromLowerLayer
vector 755  CAIN.ueD2DTx[17].nic.mac  sentPacketToUpperLayer:vector(packetBytes)  ETV
attr interpolationmode  none
attr source  sentPacketToUpperLayer
vector 173  CAIN.eNodeB1.nic.phy  averageCqiUlvect:vector  ETV
attr source  averageCqiUlvect
attr title  "Average Cqi reported in UL, vector"
attr unit  cqi
vector 150  CAIN.eNodeB1.nic.pdcpRrc  receivedPacketFromLowerLayer:vector(packetBytes)  ETV
attr interpolationmode  none
attr source  receivedPacketFromLowerLayer
vector 151  CAIN.eNodeB1.nic.pdcpRrc  sentPacketToUpperLayer:vector(packetBytes)  ETV
attr interpolationmode  none
attr source  sentPacketToUpperLayer
vector 218  CAIN.ueD2DTx[0].nic.mac  CainMessageSent:vector  ETV
attr interpolationmode  none
attr title  "# of Sent CAIN message, vector"
vector 890  CAIN.ueD2DTx[21].nic.mac  CainMessageSent:vector  ETV
attr interpolationmode  none
attr title  "# of Sent CAIN message, vector"
vector 786  CAIN.ueD2DTx[18].nic.mac  receivedPacketFromLowerLayer:vector(packetBytes)  ETV
attr interpolationmode  none
attr source  receivedPacketFromLowerLayer
vector 787  CAIN.ueD2DTx[18].nic.mac  sentPacketToUpperLayer:vector(packetBytes)  ETV
attr interpolationmode  none
attr source  sentPacketToUpperLayer
vector 339  CAIN.ueD2DTx[4].nic.mac  sentPacketToUpperLayer:vector(packetBytes)  ETV
attr interpolationmode  none
attr source  sentPacketToUpperLayer
vector 595  CAIN.ueD2DTx[12].nic.mac  sentPacketToUpperLayer:vector(packetBytes)  ETV
attr interpolationmode  none
attr source  sentPacketToUpperLayer
vector 243  CAIN.ueD2DTx[1].nic.mac  sentPacketToUpperLayer:vector(packetBytes)  ETV
attr interpolationmode  none
attr source  sentPacketToUpperLayer
vector 275  CAIN.ueD2DTx[2].nic.mac  sentPacketToUpperLayer:vector(packetBytes)  ETV
attr interpolationmode  none
attr source  sentPacketToUpperLayer
1268	175	0.0000001228	0
1379	260	0.0000006304	65535
1380	260	0.0000006304	8940
1381	260	0.0000006304	0.3725
1377	260	0.0000006304	3
1384	260	0.0000006304	1
1396	188	0.0000003096	0
1352	260	0.0000006304	65535
1353	260	0.0000006304	8940
1354	260	0.0000006304	0.3725
1350	260	0.0000006304	3
1357	260	0.0000006304	1
1369	188	0.0000003096	0
1070	260	0.0000006304	65535
1071	260	0.0000006304	8940
1072	260	0.0000006304	0.3725
1068	260	0.0000006304	3
1068	327	0.0000008564	1
1069	327	0.0000008564	2.26e-07
1074	4134	0.0570000972	2000
1074	4153	0.0570003844	2001
1074	4153	0.0570003844	2002
1074	4153	0.0570003844	2003
1074	4153	0.0570003844	2004
1074	4153	0.0570003844	2005
1074	4153	0.0570003844	2006
1074	4153	0.0570003844	2007
1074	19484	0.2570015836	2008
1074	19484	0.2570015836	2009
1074	19484	0.2570015836	2010
1074	19484	0.2570015836	2011
1074	19484	0.2570015836	2012
1074	19484	0.2570015836	2013
1074	19484	0.2570015836	2014
1074	19484	0.2570015836	2015
1074	19484	0.2570015836	2016
1074	19484	0.2570015836	2017
1074	19484	0.2570015836	2018
1074	19484	0.2570015836	2019
1074	19484	0.2570015836	2020
1074	19484	0.2570015836	2021
1074	19484	0.2570015836	2022
1074	19484	0.2570015836	2023
1074	19484	0.2570015836	2024
1074	19484	0.2570015836	2025
1074	19484	0.2570015836	2026
1074	19484	0.2570015836	2027
1074	19484	0.2570015836	2028
1074	19484	0.2570015836	2029
1074	19484	0.2570015836	2030
1074	19484	0.2570015836	2031
1074	19484	0.2570015836	2032
1074	19484	0.2570015836	2033
1074	19484	0.2570015836	2034
1074	19484	0.2570015836	2035
1074	19484	0.2570015836	2036
1074	19484	0.2570015836	2037
1074	19484	0.2570015836	2038
1074	19484	0.2570015836	2039
1074	19484	0.2570015836	2040
1074	19484	0.2570015836	2041
1074	19484	0.2570015836	2042
1074	19484	0.2570015836	2043
1074	19484	0.2570015836	2044
1074	19484	0.2570015836	2045
1074	19484	0.2570015836	2046
1074	19484	0.2570015836	2047
1074	19484	0.2570015836	2048
1074	19484	0.2570015836	2049
1074	19484	0.2570015836	2050
1074	19484	0.2570015836	2051
1074	19484	0.2570015836	2052
1074	19484	0.2570015836	2053
1074	19484	0.2570015836	2054
1074	19484	0.2570015836	2055
1074	19484	0.2570015836	2056
1074	19484	0.2570015836	2057
1074	19484	0.2570015836	2058
1074	19484	0.2570015836	2059
1074	19484	0.2570015836	2060
1074	19484	0.2570015836	2061
1074	19484	0.2570015836	2062
1074	19484	0.2570015836	2063
1074	19484	0.2570015836	2064
1074	19484	0.2570015836	2065
1074	19484	0.2570015836	2066
1074	19484	0.2570015836	2067
1074	19484	0.2570015836	2068
1074	19484	0.2570015836	2069
1074	19484	0.2570015836	2070
1074	19484	0.2570015836	2071
1077	232	0.000000552	1
1077	246	0.000000596	2
1076	232	0.000000552	1
1076	246	0.000000596	2
1078	327	0.0000008564	1
1078	333	0.0000009004	2
1087	156	0	0
1046	4134	0.0570000972	65533
1046	19470	0.2570003844	65535
1046	34122	0.4570015836	65535
1050	4134	0.0570000972	2
1050	4137	0.0570000972	2
1050	4161	0.0570003844	14
1050	4162	0.0570003844	0
1050	4163	0.0570003844	0
1050	4164	0.0570003844	0
1050	4165	0.0570003844	0
1050	4166	0.0570003844	0
1050	4167	0.0570003844	0
1050	19470	0.2570003844	0
1050	19549	0.2570015836	128
1050	19550	0.2570015836	0
1050	19551	0.2570015836	0
1050	19552	0.2570015836	0
1050	19553	0.2570015836	0
1050	19554	0.2570015836	0
1050	19555	0.2570015836	0
1050	19556	0.2570015836	0
1050	19557	0.2570015836	0
1050	19558	0.2570015836	0
1050	19559	0.2570015836	0
1050	19560	0.2570015836	0
1050	19561	0.2570015836	0
1050	19562	0.2570015836	0
1050	19563	0.2570015836	0
1050	19564	0.2570015836	0
1050	19565	0.2570015836	0
1050	19566	0.2570015836	0
1050	19567	0.2570015836	0
1050	19568	0.2570015836	0
1050	19569	0.2570015836	0
1050	19570	0.2570015836	0
1050	19571	0.2570015836	0
1050	19572	0.2570015836	0
1050	19573	0.2570015836	0
1050	19574	0.2570015836	0
1050	19575	0.2570015836	0
1050	19576	0.2570015836	0
1050	19577	0.2570015836	0
1050	19578	0.2570015836	0
1050	19579	0.2570015836	0
1050	19580	0.2570015836	0
1050	19581	0.2570015836	0
1050	19582	0.2570015836	0
1050	19583	0.2570015836	0
1050	19584	0.2570015836	0
1050	19585	0.2570015836	0
1050	19586	0.2570015836	0
1050	19587	0.2570015836	0
1050	19588	0.2570015836	0
1050	19589	0.2570015836	0
1050	19590	0.2570015836	0
1050	19591	0.2570015836	0
1050	19592	0.2570015836	0
1050	19593	0.2570015836	0
1050	19594	0.2570015836	0
1050	19595	0.2570015836	0
1050	19596	0.2570015836	0
1050	19597	0.2570015836	0
1050	19598	0.2570015836	0
1050	19599	0.2570015836	0
1050	19600	0.2570015836	0
1050	19601	0.2570015836	0
1050	19602	0.2570015836	0
1050	19603	0.2570015836	0
1050	19604	0.2570015836	0
1050	19605	0.2570015836	0
1050	19606	0.2570015836	0
1050	19607	0.2570015836	0
1050	19608	0.2570015836	0
1050	19609	0.2570015836	0
1050	19610	0.2570015836	0
1050	19611	0.2570015836	0
1050	19612	0.2570015836	0
1050	34122	0.4570015836	0
1055	4134	0.0570000972	0
1055	19470	0.2570003844	0
1055	34122	0.4570015836	0
1056	4134	0.0570000972	0
1056	19470	0.2570003844	0
1056	34122	0.4570015836	0
1057	4134	0.0570000972	0
1057	19470	0.2570003844	0
1057	34122	0.4570015836	0
1058	4134	0.0570000972	0
1058	19470	0.2570003844	0
1058	34122	0.4570015836	0
1059	4134	0.0570000972	0
1059	19470	0.2570003844	0
1059	34122	0.4570015836	0
1060	4134	0.0570000972	0
1060	19470	0.2570003844	0
1060	34122	0.4570015836	0
1061	4134	0.0570000972	0
1061	19470	0.2570003844	0
1061	34122	0.4570015836	0
1062	4134	0.0570000972	16
1062	19470	0.2570003844	16
1062	34122	0.4570015836	16
1064	188	0.0000003096	65535
1066	4137	0.0570000972	9.72e-08
1066	4161	0.0570003844	1.932e-07
1066	4161	0.0570003844	1.932e-07
1066	4161	0.0570003844	1.932e-07
1066	4161	0.0570003844	1.932e-07
1066	4161	0.0570003844	1.932e-07
1066	4161	0.0570003844	1.932e-07
1066	4161	0.0570003844	1.932e-07
1066	19549	0.2570015836	1.1052e-06
1066	19549	0.2570015836	1.1052e-06
1066	19549	0.2570015836	1.1052e-06
1066	19549	0.2570015836	1.1052e-06
1066	19549	0.2570015836	1.1052e-06
1066	19549	0.2570015836	1.1052e-06
1066	19549	0.2570015836	1.1052e-06
1066	19549	0.2570015836	1.1052e-06
1066	19549	0.2570015836	1.1052e-06
1066	19549	0.2570015836	1.1052e-06
1066	19549	0.2570015836	1.1052e-06
1066	19549	0.2570015836	1.1052e-06
1066	19549	0.2570015836	1.1052e-06
1066	19549	0.2570015836	1.1052e-06
1066	19549	0.2570015836	1.1052e-06
1066	19549	0.2570015836	1.1052e-06
1066	19549	0.2570015836	1.1052e-06
1066	19549	0.2570015836	1.1052e-06
1066	19549	0.2570015836	1.1052e-06
1066	19549	0.2570015836	1.1052e-06
1066	19549	0.2570015836	1.1052e-06
1066	19549	0.2570015836	1.1052e-06
1066	19549	0.2570015836	1.1052e-06
1066	19549	0.2570015836	1.1052e-06
1066	19549	0.2570015836	1.1052e-06
1066	19549	0.2570015836	1.1052e-06
1066	19549	0.2570015836	1.1052e-06
1066	19549	0.2570015836	1.1052e-06
1066	19549	0.2570015836	1.1052e-06
1066	19549	0.2570015836	1.1052e-06
1066	19549	0.2570015836	1.1052e-06
1066	19549	0.2570015836	1.1052e-06
1066	19549	0.2570015836	1.1052e-06
1066	19549	0.2570015836	1.1052e-06
1066	19549	0.2570015836	1.1052e-06
1066	19549	0.2570015836	1.1052e-06
1066	19549	0.2570015836	1.1052e-06
1066	19549	0.2570015836	1.1052e-06
1066	19549	0.2570015836	1.1052e-06
1066	19549	0.2570015836	1.1052e-06
1066	19549	0.2570015836	1.1052e-06
1066	19549	0.2570015836	1.1052e-06
1066	19549	0.2570015836	1.1052e-06
1066	19549	0.2570015836	1.1052e-06
1066	19549	0.2570015836	1.1052e-06
1066	19549	0.2570015836	1.1052e-06
1066	19549	0.2570015836	1.1052e-06
1066	19549	0.2570015836	1.1052e-06
1066	19549	0.2570015836	1.1052e-06
1066	19549	0.2570015836	1.1052e-06
1066	19549	0.2570015836	1.1052e-06
1066	19549	0.2570015836	1.1052e-06
1066	19549	0.2570015836	1.1052e-06
1066	19549	0.2570015836	1.1052e-06
1066	19549	0.2570015836	1.1052e-06
1066	19549	0.2570015836	1.1052e-06
1066	19549	0.2570015836	1.1052e-06
1066	19549	0.2570015836	1.1052e-06
1066	19549	0.2570015836	1.1052e-06
1066	19549	0.2570015836	1.1052e-06
1066	19549	0.2570015836	1.1052e-06
1066	19549	0.2570015836	1.1052e-06
1066	19549	0.2570015836	1.1052e-06
1066	19549	0.2570015836	1.1052e-06
1067	156	0	0
1298	203	0.000000458	65535
1299	203	0.000000458	8940
1300	203	0.000000458	0.3725
1296	203	0.000000458	3
1303	203	0.000000458	1
1311	729	0.0070001912	0
1311	15616	0.2070004784	0
1311	30545	0.4070016776	0
1312	729	0.0070001912	0
1312	15616	0.2070004784	0
1312	30545	0.4070016776	0
1313	729	0.0070001912	0
1313	15616	0.2070004784	0
1313	30545	0.4070016776	0
1315	175	0.0000001228	0
1271	203	0.000000458	65535
1272	203	0.000000458	8940
1273	203	0.000000458	0.3725
1269	203	0.000000458	3
1276	203	0.000000458	1
1284	729	0.0070001912	0
1284	15616	0.2070004784	0
1284	30545	0.4070016776	0
1285	729	0.0070001912	0
1285	15616	0.2070004784	0
1285	30545	0.4070016776	0
1286	729	0.0070001912	0
1286	15616	0.2070004784	0
1286	30545	0.4070016776	0
1288	175	0.0000001228	0
1325	203	0.000000458	65535
1325	87757	1.2070004784	65535
1326	203	0.000000458	8940
1326	87757	1.2070004784	8940
1327	203	0.000000458	0.3725
1327	87757	1.2070004784	23.84
1323	203	0.000000458	3
1323	280	0.0000006744	1
1323	729	0.0070001912	1
1323	15616	0.2070004784	1
1323	30545	0.4070016776	1
1324	280	0.0000006744	2.164e-07
1324	729	0.0070001912	1.912e-07
1324	15616	0.2070004784	0.2000002872
1324	30545	0.4070016776	0.2000011992
1328	674	0.007	2000
1328	729	0.0070001912	2001
1328	729	0.0070001912	2002
1328	729	0.0070001912	2003
1328	729	0.0070001912	2004
1328	729	0.0070001912	2005
1328	729	0.0070001912	2006
1328	729	0.0070001912	2007
1328	15616	0.2070004784	2008
1328	15616	0.2070004784	2009
1328	15616	0.2070004784	2010
1328	15616	0.2070004784	2011
1328	15616	0.2070004784	2012
1328	15616	0.2070004784	2013
1328	15616	0.2070004784	2014
1328	15616	0.2070004784	2015
1328	15616	0.2070004784	2016
1328	15616	0.2070004784	2017
1328	15616	0.2070004784	2018
1328	15616	0.2070004784	2019
1328	15616	0.2070004784	2020
1328	15616	0.2070004784	2021
1328	15616	0.2070004784	2022
1328	15616	0.2070004784	2023
1328	15616	0.2070004784	2024
1328	15616	0.2070004784	2025
1328	15616	0.2070004784	2026
1328	15616	0.2070004784	2027
1328	15616	0.2070004784	2028
1328	15616	0.2070004784	2029
1328	15616	0.2070004784	2030
1328	15616	0.2070004784	2031
1328	15616	0.2070004784	2032
1328	15616	0.2070004784	2033
1328	15616	0.2070004784	2034
1328	15616	0.2070004784	2035
1328	15616	0.2070004784	2036
1328	15616	0.2070004784	2037
1328	15616	0.2070004784	2038
1328	15616	0.2070004784	2039
1328	15616	0.2070004784	2040
1328	15616	0.2070004784	2041
1328	15616	0.2070004784	2042
1328	15616	0.2070004784	2043
1328	15616	0.2070004784	2044
1328	15616	0.2070004784	2045
1328	15616	0.2070004784	2046
1328	15616	0.2070004784	2047
1328	15616	0.2070004784	2048
1328	15616	0.2070004784	2049
1328	15616	0.2070004784	2050
1328	15616	0.2070004784	2051
1328	15616	0.2070004784	2052
1328	15616	0.2070004784	2053
1328	15616	0.2070004784	2054
1328	15616	0.2070004784	2055
1328	15616	0.2070004784	2056
1328	15616	0.2070004784	2057
1328	15616	0.2070004784	2058
1328	15616	0.2070004784	2059
1328	15616	0.2070004784	2060
1328	15616	0.2070004784	2061
1328	15616	0.2070004784	2062
1328	15616	0.2070004784	2063
1328	15616	0.2070004784	2064
1328	15616	0.2070004784	2065
1328	15616	0.2070004784	2066
1328	15616	0.2070004784	2067
1328	15616	0.2070004784	2068
1328	15616	0.2070004784	2069
1328	15616	0.2070004784	2070
1328	15616	0.2070004784	2071
1332	298	0.0000007624	1
1332	312	0.0000008064	2
1331	298	0.0000007624	1
1331	312	0.0000008064	2
1333	280	0.0000006744	1
1333	290	0.0000007184	2
1334	674	0.007	2
1334	729	0.0070001912	0
1334	729	0.0070001912	2
1334	729	0.0070001912	4
1334	729	0.0070001912	6
1334	729	0.0070001912	8
1334	729	0.0070001912	10
1334	729	0.0070001912	12
1334	729	0.0070001912	14
1334	15616	0.2070004784	12
1334	15616	0.2070004784	10
1334	15616	0.2070004784	8
1334	15616	0.2070004784	6
1334	15616	0.2070004784	4
1334	15616	0.2070004784	2
1334	15616	0.2070004784	0
1334	15616	0.2070004784	2
1334	15616	0.2070004784	4
1334	15616	0.2070004784	6
1334	15616	0.2070004784	8
1334	15616	0.2070004784	10
1334	15616	0.2070004784	12
1334	15616	0.2070004784	14
1334	15616	0.2070004784	16
1334	15616	0.2070004784	18
1334	15616	0.2070004784	20
1334	15616	0.2070004784	22
1334	15616	0.2070004784	24
1334	15616	0.2070004784	26
1334	15616	0.2070004784	28
1334	15616	0.2070004784	30
1334	15616	0.2070004784	32
1334	15616	0.2070004784	34
1334	15616	0.2070004784	36
1334	15616	0.2070004784	38
1334	15616	0.2070004784	40
1334	15616	0.2070004784	42
1334	15616	0.2070004784	44
1334	15616	0.2070004784	46
1334	15616	0.2070004784	48
1334	15616	0.2070004784	50
1334	15616	0.2070004784	52
1334	15616	0.2070004784	54
1334	15616	0.2070004784	56
1334	15616	0.2070004784	58
1334	15616	0.2070004784	60
1334	15616	0.2070004784	62
1334	15616	0.2070004784	64
1334	15616	0.2070004784	66
1334	15616	0.2070004784	68
1334	15616	0.2070004784	70
1334	15616	0.2070004784	72
1334	15616	0.2070004784	74
1334	15616	0.2070004784	76
1334	15616	0.2070004784	78
1334	15616	0.2070004784	80
1334	15616	0.2070004784	82
1334	15616	0.2070004784	84
1334	15616	0.2070004784	86
1334	15616	0.2070004784	88
1334	15616	0.2070004784	90
1334	15616	0.2070004784	92
1334	15616	0.2070004784	94
1334	15616	0.2070004784	96
1334	15616	0.2070004784	98
1334	15616	0.2070004784	100
1334	15616	0.2070004784	102
1334	15616	0.2070004784	104
1334	15616	0.2070004784	106
1334	15616	0.2070004784	108
1334	15616	0.2070004784	110
1334	15616	0.2070004784	112
1334	15616	0.2070004784	114
1334	15616	0.2070004784	116
1334	15616	0.2070004784	118
1334	15616	0.2070004784	120
1334	15616	0.2070004784	122
1334	15616	0.2070004784	124
1334	15616	0.2070004784	126
1334	15616	0.2070004784	128
1334	30545	0.4070016776	126
1334	30545	0.4070016776	124
1334	30545	0.4070016776	122
1334	30545	0.4070016776	120
1334	30545	0.4070016776	118
1334	30545	0.4070016776	116
1334	30545	0.4070016776	114
1334	30545	0.4070016776	112
1334	30545	0.4070016776	110
1334	30545	0.4070016776	108
1334	30545	0.4070016776	106
1334	30545	0.4070016776	104
1334	30545	0.4070016776	102
1334	30545	0.4070016776	100
1334	30545	0.4070016776	98
1334	30545	0.4070016776	96
1334	30545	0.4070016776	94
1334	30545	0.4070016776	92
1334	30545	0.4070016776	90
1334	30545	0.4070016776	88
1334	30545	0.4070016776	86
1334	30545	0.4070016776	84
1334	30545	0.4070016776	82
1334	30545	0.4070016776	80
1334	30545	0.4070016776	78
1334	30545	0.4070016776	76
1334	30545	0.4070016776	74
1334	30545	0.4070016776	72
1334	30545	0.4070016776	70
1334	30545	0.4070016776	68
1334	30545	0.4070016776	66
1334	30545	0.4070016776	64
1334	30545	0.4070016776	62
1334	30545	0.4070016776	60
1334	30545	0.4070016776	58
1334	30545	0.4070016776	56
1334	30545	0.4070016776	54
1334	30545	0.4070016776	52
1334	30545	0.4070016776	50
1334	30545	0.4070016776	48
1334	30545	0.4070016776	46
1334	30545	0.4070016776	44
1334	30545	0.4070016776	42
1334	30545	0.4070016776	40
1334	30545	0.4070016776	38
1334	30545	0.4070016776	36
1334	30545	0.4070016776	34
1334	30545	0.4070016776	32
1334	30545	0.4070016776	30
1334	30545	0.4070016776	28
1334	30545	0.4070016776	26
1334	30545	0.4070016776	24
1334	30545	0.4070016776	22
1334	30545	0.4070016776	20
1334	30545	0.4070016776	18
1334	30545	0.4070016776	16
1334	30545	0.4070016776	14
1334	30545	0.4070016776	12
1334	30545	0.4070016776	10
1334	30545	0.4070016776	8
1334	30545	0.4070016776	6
1334	30545	0.4070016776	4
1334	30545	0.4070016776	2
1334	30545	0.4070016776	0
1335	674	0.007	2
1335	729	0.0070001912	0
1335	729	0.0070001912	2
1335	729	0.0070001912	4
1335	729	0.0070001912	6
1335	729	0.0070001912	8
1335	729	0.0070001912	10
1335	729	0.0070001912	12
1335	729	0.0070001912	14
1335	15616	0.2070004784	12
1335	15616	0.2070004784	10
1335	15616	0.2070004784	8
1335	15616	0.2070004784	6
1335	15616	0.2070004784	4
1335	15616	0.2070004784	2
1335	15616	0.2070004784	0
1335	15616	0.2070004784	2
1335	15616	0.2070004784	4
1335	15616	0.2070004784	6
1335	15616	0.2070004784	8
1335	15616	0.2070004784	10
1335	15616	0.2070004784	12
1335	15616	0.2070004784	14
1335	15616	0.2070004784	16
1335	15616	0.2070004784	18
1335	15616	0.2070004784	20
1335	15616	0.2070004784	22
1335	15616	0.2070004784	24
1335	15616	0.2070004784	26
1335	15616	0.2070004784	28
1335	15616	0.2070004784	30
1335	15616	0.2070004784	32
1335	15616	0.2070004784	34
1335	15616	0.2070004784	36
1335	15616	0.2070004784	38
1335	15616	0.2070004784	40
1335	15616	0.2070004784	42
1335	15616	0.2070004784	44
1335	15616	0.2070004784	46
1335	15616	0.2070004784	48
1335	15616	0.2070004784	50
1335	15616	0.2070004784	52
1335	15616	0.2070004784	54
1335	15616	0.2070004784	56
1335	15616	0.2070004784	58
1335	15616	0.2070004784	60
1335	15616	0.2070004784	62
1335	15616	0.2070004784	64
1335	15616	0.2070004784	66
1335	15616	0.2070004784	68
1335	15616	0.2070004784	70
1335	15616	0.2070004784	72
1335	15616	0.2070004784	74
1335	15616	0.2070004784	76
1335	15616	0.2070004784	78
1335	15616	0.2070004784	80
1335	15616	0.2070004784	82
1335	15616	0.2070004784	84
1335	15616	0.2070004784	86
1335	15616	0.2070004784	88
1335	15616	0.2070004784	90
1335	15616	0.2070004784	92
1335	15616	0.2070004784	94
1335	15616	0.2070004784	96
1335	15616	0.2070004784	98
1335	15616	0.2070004784	100
1335	15616	0.2070004784	102
1335	15616	0.2070004784	104
1335	15616	0.2070004784	106
1335	15616	0.2070004784	108
1335	15616	0.2070004784	110
1335	15616	0.2070004784	112
1335	15616	0.2070004784	114
1335	15616	0.2070004784	116
1335	15616	0.2070004784	118
1335	15616	0.2070004784	120
1335	15616	0.2070004784	122
1335	15616	0.2070004784	124
1335	15616	0.2070004784	126
[...]
955	11389	0.149	19
955	11765	0.154	20
955	12141	0.159	21
955	12450	0.164	22
955	12826	0.169	23
955	13177	0.174	24
955	13528	0.179	25
955	13904	0.184	26
955	14280	0.189	27
955	14589	0.194	28
955	14965	0.199	29
955	15335	0.204	30
955	16021	0.209	31
955	16397	0.214	32
955	16773	0.219	33
955	17082	0.224	34
955	17458	0.229	35
955	17809	0.234	36
955	18160	0.239	37
955	18536	0.244	38
955	18912	0.249	39
955	19221	0.254	40
955	19932	0.259	41
955	20283	0.264	42
955	20634	0.269	43
955	21010	0.274	44
955	21386	0.279	45
955	21695	0.284	46
955	22071	0.289	47
955	22422	0.294	48
955	22773	0.299	49
955	23168	0.304	50
955	23544	0.309	51
955	23853	0.314	52
955	24229	0.319	53
955	24580	0.324	54
955	24931	0.329	55
955	25307	0.334	56
955	25683	0.339	57
955	25992	0.344	58
955	26368	0.349	59
955	26719	0.354	60
955	27070	0.359	61
955	27446	0.364	62
955	27822	0.369	63
955	28131	0.374	64
955	28507	0.379	65
955	28858	0.384	66
955	29209	0.389	67
955	29585	0.394	68
955	29961	0.399	69
955	30289	0.404	70
955	30673	0.409	71
955	31024	0.414	72
955	31375	0.419	73
955	31751	0.424	74
955	32127	0.429	75
955	32436	0.434	76
955	32812	0.439	77
955	33163	0.444	78
955	33514	0.449	79
955	33890	0.454	80
955	34274	0.459	81
955	34583	0.464	82
955	34959	0.469	83
955	35310	0.474	84
955	35661	0.479	85
955	36037	0.484	86
955	36413	0.489	87
955	36722	0.494	88
955	37098	0.499	89
955	37468	0.504	90
955	37819	0.509	91
955	38195	0.514	92
955	38571	0.519	93
955	38880	0.524	94
955	39256	0.529	95
955	39607	0.534	96
955	39958	0.539	97
955	40334	0.544	98
955	40710	0.549	99
955	41019	0.554	100
955	41395	0.559	101
955	41746	0.564	102
955	42097	0.569	103
955	42473	0.574	104
955	42849	0.579	105
955	43158	0.584	106
955	43534	0.589	107
955	43885	0.594	108
955	44236	0.599	109
955	44631	0.604	110
955	45007	0.609	111
955	45316	0.614	112
955	45692	0.619	113
955	46043	0.624	114
955	46394	0.629	115
955	46770	0.634	116
955	47146	0.639	117
955	47455	0.644	118
955	47831	0.649	119
955	48182	0.654	120
955	48533	0.659	121
955	48909	0.664	122
955	49285	0.669	123
955	49594	0.674	124
955	49970	0.679	125
955	50321	0.684	126
955	50672	0.689	127
955	51048	0.694	128
955	51424	0.699	129
955	51752	0.704	130
955	52128	0.709	131
955	52479	0.714	132
955	52830	0.719	133
955	53206	0.724	134
955	53582	0.729	135
955	53891	0.734	136
955	54267	0.739	137
955	54618	0.744	138
955	54969	0.749	139
955	55345	0.754	140
955	55721	0.759	141
955	56030	0.764	142
955	56406	0.769	143
955	56757	0.774	144
955	57108	0.779	145
955	57484	0.784	146
955	57860	0.789	147
955	58169	0.794	148
955	58545	0.799	149
955	58915	0.804	150
955	59266	0.809	151
955	59642	0.814	152
955	60018	0.819	153
955	60327	0.824	154
955	60703	0.829	155
955	61054	0.834	156
955	61405	0.839	157
955	61781	0.844	158
955	62157	0.849	159
955	62466	0.854	160
955	62842	0.859	161
955	63193	0.864	162
955	63544	0.869	163
955	63920	0.874	164
955	64296	0.879	165
955	64605	0.884	166
955	64981	0.889	167
955	65332	0.894	168
955	65683	0.899	169
955	66078	0.904	170
955	66454	0.909	171
955	66763	0.914	172
955	67139	0.919	173
955	67490	0.924	174
955	67841	0.929	175
955	68217	0.934	176
955	68593	0.939	177
955	68902	0.944	178
955	69278	0.949	179
955	69629	0.954	180
955	69980	0.959	181
955	70356	0.964	182
955	70732	0.969	183
955	71041	0.974	184
955	71417	0.979	185
955	71768	0.984	186
955	72119	0.989	187
955	72495	0.994	188
955	72871	0.999	189
955	73199	1.004	190
955	73575	1.009	191
955	73926	1.014	192
955	74277	1.019	193
955	74653	1.024	194
955	75029	1.029	195
955	75338	1.034	196
955	75714	1.039	197
955	76065	1.044	198
955	76416	1.049	199
955	76792	1.054	200
955	77168	1.059	201
955	77477	1.064	202
955	77853	1.069	203
955	78204	1.074	204
955	78555	1.079	205
955	78931	1.084	206
955	79307	1.089	207
955	79616	1.094	208
955	79992	1.099	209
955	80362	1.104	210
955	80713	1.109	211
955	81089	1.114	212
955	81465	1.119	213
955	81774	1.124	214
955	82150	1.129	215
955	82501	1.134	216
955	82852	1.139	217
955	83228	1.144	218
955	83604	1.149	219
955	83913	1.154	220
955	84289	1.159	221
955	84640	1.164	222
955	84991	1.169	223
955	85367	1.174	224
955	85743	1.179	225
955	86052	1.184	226
955	86428	1.189	227
955	86779	1.194	228
955	87130	1.199	229
955	87525	1.204	230
955	87902	1.209	231
955	88211	1.214	232
955	88587	1.219	233
955	88938	1.224	234
955	89289	1.229	235
955	89665	1.234	236
955	90041	1.239	237
955	90350	1.244	238
955	90726	1.249	239
955	91077	1.254	240
955	91429	1.259	241
955	91805	1.264	242
955	92181	1.269	243
955	92490	1.274	244
955	92866	1.279	245
955	93217	1.284	246
955	93568	1.289	247
955	93944	1.294	248
955	94320	1.299	249
955	94648	1.304	250
955	95024	1.309	251
955	95375	1.314	252
955	95726	1.319	253
955	96102	1.324	254
955	96478	1.329	255
955	96787	1.334	256
955	97163	1.339	257
955	97514	1.344	258
955	97865	1.349	259
955	98241	1.354	260
955	98617	1.359	261
955	98926	1.364	262
955	99302	1.369	263
955	99653	1.374	264
955	100004	1.379	265
955	100380	1.384	266
955	100756	1.389	267
955	101065	1.394	268
955	101441	1.399	269
955	101811	1.404	270
955	102162	1.409	271
955	102538	1.414	272
955	102914	1.419	273
955	103223	1.424	274
955	103599	1.429	275
955	103950	1.434	276
955	104301	1.439	277
955	104677	1.444	278
955	105053	1.449	279
955	105362	1.454	280
955	105738	1.459	281
955	106089	1.464	282
955	106440	1.469	283
955	106816	1.474	284
955	107192	1.479	285
955	107501	1.484	286
955	107877	1.489	287
955	108228	1.494	288
955	108579	1.499	289
955	108974	1.504	290
955	109350	1.509	291
955	109659	1.514	292
955	110035	1.519	293
955	110386	1.524	294
955	110737	1.529	295
955	111113	1.534	296
955	111489	1.539	297
955	111798	1.544	298
955	112174	1.549	299
955	112525	1.554	300
955	112876	1.559	301
955	113252	1.564	302
955	113628	1.569	303
955	113937	1.574	304
955	114313	1.579	305
955	114664	1.584	306
955	115015	1.589	307
955	115391	1.594	308
955	115767	1.599	309
955	116095	1.604	310
955	116471	1.609	311
955	116822	1.614	312
955	117173	1.619	313
955	117549	1.624	314
955	117925	1.629	315
955	118234	1.634	316
955	118610	1.639	317
955	118961	1.644	318
955	119312	1.649	319
955	119688	1.654	320
955	120064	1.659	321
955	120373	1.664	322
955	120749	1.669	323
955	121100	1.674	324
955	121451	1.679	325
955	121827	1.684	326
955	122203	1.689	327
955	122512	1.694	328
955	122888	1.699	329
955	123258	1.704	330
955	123609	1.709	331
955	123985	1.714	332
955	124361	1.719	333
955	124670	1.724	334
955	125046	1.729	335
955	125397	1.734	336
955	125748	1.739	337
955	126124	1.744	338
955	126500	1.749	339
955	126809	1.754	340
955	127185	1.759	341
955	127536	1.764	342
955	127887	1.769	343
955	128263	1.774	344
955	128639	1.779	345
955	128948	1.784	346
955	129324	1.789	347
955	129675	1.794	348
955	130026	1.799	349
955	130421	1.804	350
955	130797	1.809	351
955	131106	1.814	352
955	131482	1.819	353
955	131833	1.824	354
955	132184	1.829	355
955	132560	1.834	356
955	132936	1.839	357
955	133245	1.844	358
955	133621	1.849	359
955	133972	1.854	360
955	134323	1.859	361
955	134699	1.864	362
955	135075	1.869	363
955	135384	1.874	364
955	135760	1.879	365
955	136111	1.884	366
955	136462	1.889	367
955	136838	1.894	368
955	137214	1.899	369
955	137542	1.904	370
955	137918	1.909	371
955	138269	1.914	372
955	138620	1.919	373
955	138996	1.924	374
955	139372	1.929	375
955	139681	1.934	376
955	140057	1.939	377
955	140408	1.944	378
955	140759	1.949	379
955	141135	1.954	380
955	141511	1.959	381
955	141820	1.964	382
955	142196	1.969	383
955	142547	1.974	384
955	142898	1.979	385
955	143274	1.984	386
955	143650	1.989	387
955	143959	1.994	388
955	144335	1.999	389
955	144705	2.004	390
955	145056	2.009	391
955	145432	2.014	392
955	145808	2.019	393
955	146117	2.024	394
955	146493	2.029	395
955	146844	2.034	396
955	147195	2.039	397
955	147571	2.044	398
955	147947	2.049	399
955	148256	2.054	400
955	148632	2.059	401
955	148983	2.064	402
955	149334	2.069	403
955	149710	2.074	404
955	150086	2.079	405
955	150395	2.084	406
955	150771	2.089	407
955	151122	2.094	408
955	151473	2.099	409
955	151868	2.104	410
955	152244	2.109	411
955	152553	2.114	412
955	152929	2.119	413
955	153280	2.124	414
955	153631	2.129	415
955	154007	2.134	416
955	154383	2.139	417
955	154692	2.144	418
955	155068	2.149	419
955	155419	2.154	420
955	155770	2.159	421
955	156146	2.164	422
955	156522	2.169	423
955	156831	2.174	424
955	157207	2.179	425
955	157558	2.184	426
955	157909	2.189	427
955	158285	2.194	428
955	158661	2.199	429
955	158989	2.204	430
955	159365	2.209	431
955	159716	2.214	432
955	160067	2.219	433
955	160443	2.224	434
955	160819	2.229	435
955	161128	2.234	436
955	161504	2.239	437
955	161855	2.244	438
955	162206	2.249	439
955	162582	2.254	440
955	162958	2.259	441
955	163267	2.264	442
955	163643	2.269	443
955	163994	2.274	444
955	164345	2.279	445
955	164721	2.284	446
955	165097	2.289	447
955	165406	2.294	448
955	165782	2.299	449
955	166152	2.304	450
955	166503	2.309	451
955	166879	2.314	452
955	167255	2.319	453
955	167564	2.324	454
955	167940	2.329	455
955	168291	2.334	456
955	168642	2.339	457
955	169018	2.344	458
955	169394	2.349	459
955	169703	2.354	460
955	170079	2.359	461
955	170430	2.364	462
955	170781	2.369	463
955	171157	2.374	464
955	171533	2.379	465
955	171842	2.384	466
955	172218	2.389	467
955	172569	2.394	468
955	172920	2.399	469
955	173315	2.404	470
955	173691	2.409	471
955	174000	2.414	472
955	174376	2.419	473
955	174727	2.424	474
955	175078	2.429	475
955	175454	2.434	476
955	175830	2.439	477
955	176139	2.444	478
955	176515	2.449	479
955	176866	2.454	480
955	177217	2.459	481
955	177593	2.464	482
955	177969	2.469	483
955	178278	2.474	484
955	178654	2.479	485
955	179005	2.484	486
955	179356	2.489	487
955	179732	2.494	488
955	180108	2.499	489
955	180436	2.504	490
955	180812	2.509	491
955	181163	2.514	492
955	181514	2.519	493
955	181890	2.524	494
955	182266	2.529	495
955	182575	2.534	496
955	182951	2.539	497
955	183302	2.544	498
955	183653	2.549	499
955	184029	2.554	500
955	184405	2.559	501
955	184714	2.564	502
955	185090	2.569	503
955	185441	2.574	504
955	185792	2.579	505
955	186168	2.584	506
955	186544	2.589	507
955	186853	2.594	508
955	187229	2.599	509
955	187599	2.604	510
955	187950	2.609	511
955	188326	2.614	512
955	188702	2.619	513
955	189011	2.624	514
955	189387	2.629	515
955	189738	2.634	516
955	190089	2.639	517
955	190465	2.644	518
955	190841	2.649	519
955	191150	2.654	520
955	191526	2.659	521
955	191877	2.664	522
955	192228	2.669	523
955	192604	2.674	524
955	192980	2.679	525
955	193289	2.684	526
955	193665	2.689	527
955	194016	2.694	528
955	194367	2.699	529
955	194762	2.704	530
955	195138	2.709	531
955	195447	2.714	532
955	195823	2.719	533
955	196174	2.724	534
955	196525	2.729	535
955	196901	2.734	536
955	197277	2.739	537
955	197586	2.744	538
955	197962	2.749	539
955	198313	2.754	540
955	198664	2.759	541
955	199040	2.764	542
955	199416	2.769	543
955	199725	2.774	544
955	200101	2.779	545
955	200452	2.784	546
955	200803	2.789	547
955	201179	2.794	548
955	201555	2.799	549
955	201883	2.804	550
955	202259	2.809	551
955	202610	2.814	552
955	202961	2.819	553
955	203337	2.824	554
955	203713	2.829	555
955	204022	2.834	556
955	204398	2.839	557
955	204749	2.844	558
955	205100	2.849	559
955	205476	2.854	560
955	205852	2.859	561
955	206161	2.864	562
955	206537	2.869	563
955	206888	2.874	564
955	207239	2.879	565
955	207615	2.884	566
955	207991	2.889	567
955	208300	2.894	568
955	208676	2.899	569
955	209046	2.904	570
955	209397	2.909	571
955	209773	2.914	572
955	210149	2.919	573
955	210458	2.924	574
955	210834	2.929	575
955	211185	2.934	576
955	211536	2.939	577
955	211912	2.944	578
955	212288	2.949	579
955	212597	2.954	580
955	212973	2.959	581
955	213324	2.964	582
955	213675	2.969	583
955	214051	2.974	584
955	214427	2.979	585
955	214736	2.984	586
955	215112	2.989	587
955	215463	2.994	588
955	215814	2.999	589
955	216209	3.004	590
955	216585	3.009	591
955	216902	3.014	592
955	217301	3.019	593
955	217709	3.024	594
955	218127	3.029	595
955	218579	3.034	596
955	219015	3.039	597
955	219372	3.044	598
955	219787	3.049	599
955	220168	3.054	600
955	220568	3.059	601
955	221045	3.064	602
955	221538	3.069	603
955	221890	3.074	604
955	222320	3.079	605
955	222714	3.084	606
955	223141	3.089	607
955	223653	3.094	608
955	224199	3.099	609
955	224619	3.104	610
955	225059	3.109	611
955	225424	3.114	612
955	225785	3.119	613
955	226171	3.124	614
955	226557	3.129	615
955	226876	3.134	616
955	227262	3.139	617
955	227623	3.144	618
955	227984	3.149	619
955	228370	3.154	620
955	228756	3.159	621
955	229075	3.164	622
955	229461	3.169	623
955	229822	3.174	624
955	230183	3.179	625
955	230570	3.184	626
955	230956	3.189	627
955	231275	3.194	628
955	231661	3.199	629
955	232040	3.204	630
955	232401	3.209	631
955	232787	3.214	632
955	233173	3.219	633
955	233492	3.224	634
955	233878	3.229	635
955	234239	3.234	636
955	234600	3.239	637
955	234986	3.244	638
955	235372	3.249	639
955	235691	3.254	640
955	236077	3.259	641
955	236438	3.264	642
955	236799	3.269	643
955	237185	3.274	644
955	237571	3.279	645
955	237891	3.284	646
955	238277	3.289	647
955	238638	3.294	648
955	238999	3.299	649
955	239403	3.304	650
955	239789	3.309	651
955	240108	3.314	652
955	240494	3.319	653
955	240855	3.324	654
955	241216	3.329	655
955	241602	3.334	656
955	241988	3.339	657
955	242307	3.344	658
955	242693	3.349	659
955	243054	3.354	660
955	243415	3.359	661
955	243801	3.364	662
955	244187	3.369	663
955	244506	3.374	664
955	244892	3.379	665
955	245254	3.384	666
955	245615	3.389	667
955	246001	3.394	668
955	246387	3.399	669
955	246724	3.404	670
955	247110	3.409	671
955	247471	3.414	672
955	247832	3.419	673
955	248218	3.424	674
955	248604	3.429	675
955	248923	3.434	676
955	249309	3.439	677
955	249670	3.444	678
955	250031	3.449	679
955	250417	3.454	680
955	250803	3.459	681
955	251122	3.464	682
955	251508	3.469	683
967	0	0	1
973	1260	0.017291934837	44
973	217162	3.017291934837	44
976	1260	0.017291934837	45
976	217162	3.017291934837	45
977	1263	0.017291934837	45
977	1562	0.022	47
977	217165	3.017291934837	45
977	217557	3.022	47
978	1488	0.02	0
978	1528	0.021	0
978	1901	0.027	0
978	1905	0.027	0
978	217446	3.02	0
978	217499	3.021	0
978	218006	3.027	0
978	218010	3.027	0
979	1558	0.022	0
979	217553	3.022	0
980	1315	0.018	0
980	1565	0.022	0
980	217223	3.018	0
980	217560	3.022	0
999	0	0	1
1479	1072	0.013945144669	7504
1479	216868	3.013945144669	7504
1480	1072	0.013945144669	7504
1480	216868	3.013945144669	7504
1482	1072	0.013945144669	0
1482	216868	3.013945144669	0
1493	1072	0.013945144669	0
1493	216868	3.013945144669	0
1503	1257	0.017291934837	7504
1503	217159	3.017291934837	7504
1504	1257	0.017291934837	7504
1504	217159	3.017291934837	7504
1506	1257	0.017291934837	0
1506	217159	3.017291934837	0
1517	1257	0.017291934837	0
1517	217159	3.017291934837	0
1527	1490	0.020429364846	7504
1527	217459	3.020429364846	7504
1528	1490	0.020429364846	7504
1528	217459	3.020429364846	7504
1530	1490	0.020429364846	0
1530	217459	3.020429364846	0
1541	1490	0.020429364846	0
1541	217459	3.020429364846	0
1551	1610	0.023409340573	7504
1551	217646	3.023409340573	7504
1552	1610	0.023409340573	7504
1552	217646	3.023409340573	7504
1554	1610	0.023409340573	0
1554	217646	3.023409340573	0
1565	1610	0.023409340573	0
1565	217646	3.023409340573	0
1575	1990	0.029577355213	7504
1575	218159	3.029577355213	7504
1576	1990	0.029577355213	7504
1576	218159	3.029577355213	7504
1578	1990	0.029577355213	0
1578	218159	3.029577355213	0
1589	1990	0.029577355213	0
1589	218159	3.029577355213	0
1599	2149	0.031389955268	7504
1599	218331	3.031389955268	7504
1600	2149	0.031389955268	7504
1600	218331	3.031389955268	7504
1602	2149	0.031389955268	0
1602	218331	3.031389955268	0
1613	2149	0.031389955268	0
1613	218331	3.031389955268	0
1623	2253	0.032763117831	7504
1623	218464	3.032763117831	7504
1624	2253	0.032763117831	7504
1624	218464	3.032763117831	7504
1626	2253	0.032763117831	0
1626	218464	3.032763117831	0
1637	2253	0.032763117831	0
1637	218464	3.032763117831	0
1647	2261	0.03277608233	7504
1647	218471	3.03277608233	7504
1648	2261	0.03277608233	7504
1648	218471	3.03277608233	7504
1650	2261	0.03277608233	0
1650	218471	3.03277608233	0
1661	2261	0.03277608233	0
1661	218471	3.03277608233	0
1671	2320	0.033984720812	7504
1671	218541	3.033984720812	7504
1672	2320	0.033984720812	7504
1672	218541	3.033984720812	7504
1674	2320	0.033984720812	0
1674	218541	3.033984720812	0
1685	2320	0.033984720812	0
1685	218541	3.033984720812	0
1695	2871	0.041401293019	7504
1695	219168	3.041401293019	7504
1696	2871	0.041401293019	7504
1696	219168	3.041401293019	7504
1698	2871	0.041401293019	0
1698	219168	3.041401293019	0
1709	2871	0.041401293019	0
1709	219168	3.041401293019	0
1719	3262	0.0465854099	7504
1719	219598	3.0465854099	7504
1720	3262	0.0465854099	7504
1720	219598	3.0465854099	7504
1722	3262	0.0465854099	0
1722	219598	3.0465854099	0
1733	3262	0.0465854099	0
1733	219598	3.0465854099	0
1743	3631	0.051714848483	7504
1743	219991	3.051714848483	7504
1744	3631	0.051714848483	7504
1744	219991	3.051714848483	7504
1746	3631	0.051714848483	0
1746	219991	3.051714848483	0
1757	3631	0.051714848483	0
1757	219991	3.051714848483	0
1767	3735	0.053527664666	7504
1767	220107	3.053527664666	7504
1768	3735	0.053527664666	7504
1768	220107	3.053527664666	7504
1770	3735	0.053527664666	0
1770	220107	3.053527664666	0
1781	3735	0.053527664666	0
1781	220107	3.053527664666	0
1791	4245	0.058625387866	7504
1791	220532	3.058625387866	7504
1792	4245	0.058625387866	7504
1792	220532	3.058625387866	7504
1794	4245	0.058625387866	0
1794	220532	3.058625387866	0
1805	4245	0.058625387866	0
1805	220532	3.058625387866	0
1815	4304	0.059049774688	7504
1815	220600	3.059049774688	7504
1816	4304	0.059049774688	7504
1816	220600	3.059049774688	7504
1818	4304	0.059049774688	0
1818	220600	3.059049774688	0
1829	4304	0.059049774688	0
1829	220600	3.059049774688	0
1839	4393	0.060278170027	7504
1839	220698	3.060278170027	7504
1840	4393	0.060278170027	7504
1840	220698	3.060278170027	7504
1842	4393	0.060278170027	0
1842	220698	3.060278170027	0
1853	4393	0.060278170027	0
1853	220698	3.060278170027	0
1863	4618	0.062601716756	7504
1863	220934	3.062601716756	7504
1864	4618	0.062601716756	7504
1864	220934	3.062601716756	7504
1866	4618	0.062601716756	0
1866	220934	3.062601716756	0
1877	4618	0.062601716756	0
1877	220934	3.062601716756	0
1887	5800	0.076266208328	7504
1887	222121	3.076266208328	7504
1888	5800	0.076266208328	7504
1888	222121	3.076266208328	7504
1890	5800	0.076266208328	0
1890	222121	3.076266208328	0
1901	5800	0.076266208328	0
1901	222121	3.076266208328	0
1911	6253	0.082919128996	7504
1911	222588	3.082919128996	7504
1912	6253	0.082919128996	7504
1912	222588	3.082919128996	7504
1914	6253	0.082919128996	0
1914	222588	3.082919128996	0
1925	6253	0.082919128996	0
1925	222588	3.082919128996	0
1935	6310	0.083256449993	7504
1935	222653	3.083256449993	7504
1936	6310	0.083256449993	7504
1936	222653	3.083256449993	7504
1938	6310	0.083256449993	0
1938	222653	3.083256449993	0
1949	6310	0.083256449993	0
1949	222653	3.083256449993	0
1959	6671	0.087465974346	7504
1959	223040	3.087465974346	7504
1960	6671	0.087465974346	7504
1960	223040	3.087465974346	7504
1962	6671	0.087465974346	0
1962	223040	3.087465974346	0
1973	6671	0.087465974346	0
1973	223040	3.087465974346	0
1983	6790	0.089455451544	7504
1983	223177	3.089455451544	7504
1984	6790	0.089455451544	7504
1984	223177	3.089455451544	7504
1986	6790	0.089455451544	0
1986	223177	3.089455451544	0
1997	6790	0.089455451544	0
1997	223177	3.089455451544	0
2007	7172	0.093058322349	7504
2007	223602	3.093058322349	7504
2008	7172	0.093058322349	7504
2008	223602	3.093058322349	7504
2010	7172	0.093058322349	0
2010	223602	3.093058322349	0
2021	7172	0.093058322349	0
2021	223602	3.093058322349	0
2031	7180	0.093147725489	7504
2031	223609	3.093147725489	7504
2032	7180	0.093147725489	7504
2032	223609	3.093147725489	7504
2034	7180	0.093147725489	0
2034	223609	3.093147725489	0
2045	7180	0.093147725489	0
2045	223609	3.093147725489	0
2055	7658	0.098821217397	7504
2055	224163	3.098821217397	7504
2056	7658	0.098821217397	7504
2056	224163	3.098821217397	7504
2058	7658	0.098821217397	0
2058	224163	3.098821217397	0
2069	7658	0.098821217397	0
2069	224163	3.098821217397	0
