version 2
run CAIN-33-20200508-15:45:59-11135
attr configname CAIN
attr datetime 20200508-15:45:59
attr dist 200
attr experiment CAIN
attr extAllocType "\"FULL_ALLOC\""
attr inifile omnetpp.ini
attr iterationvars "$numUe=20, $pwr=-50, $dist=200, $mob=\"./movements/RPGM-0.0.movements\", $extAllocType=\"FULL_ALLOC\""
attr iterationvars2 "$numUe=20, $pwr=-50, $dist=200, $mob=\"./movements/RPGM-0.0.movements\", $extAllocType=\"FULL_ALLOC\", $repetition=3"
attr measurement "$numUe=20, $pwr=-50, $dist=200, $mob=\"./movements/RPGM-0.0.movements\", $extAllocType=\"FULL_ALLOC\""
attr mob "\"./movements/RPGM-0.0.movements\""
attr network lte.simulations.networks.CAIN
attr numUe 20
attr processid 11135
attr pwr -50
attr repetition 3
attr replication #3
attr resultdir results
attr runnumber 33
attr seedset 3
param **.**.amcMode "\"AUTO\""
param **.amcMode "\"D2D\""
param **.cainNetwork true
param **.channelControl.alpha 1.0
param **.channelControl.carrierFrequency 2100e+6Hz
param **.channelControl.pMax 10W
param **.d2dCqi 7
param **.deployer.numRbDl 50
param **.deployer.numRbUl 50
param **.distThresh ${dist=200}
param **.fbDelay 1
param **.feedbackComputation "xmldoc(\"config_channel.xml\")"
param **.mobility.constraintAreaMaxX 1000m
param **.mobility.constraintAreaMaxY 1000m
param **.mobility.constraintAreaMaxZ 0m
param **.mobility.constraintAreaMinX 0m
param **.mobility.constraintAreaMinY 0m
param **.mobility.constraintAreaMinZ 0m
param **.nic.phy.channelModel "xmldoc(\"config_channel.xml\")"
param **.numBands 50
param **.pwrThresh "${pwr= -50}"
param **.qtdThresh 3
param **.rbAllocationType "\"localized\""
param **.routingRecorder.enabled false
param **.tcpApp[*].tClose -1s
param **.ueD2DTx[*].mobility.changeAngleBy "normal(0deg, 30deg)"
param **.ueD2DTx[*].mobility.changeInterval "normal(5s, 0.1s)"
param **.ueD2DTx[*].mobility.nodeId -1
param **.ueD2DTx[*].mobility.speed "normal(2mps, 0.01mps)"
param **.ueD2DTx[*].mobility.traceFile "${mob=\"./movements/RWP-0.0.movements\",\"./movements/RWP-0.5.movements\",\"./movements/RPGM-0.0.movements\",\"./movements/RPGM-0.5.movements\",\"./movements/RWPRPGM-0.0.movements\",\"./movements/RWPRPGM-0.5.movements\"}"
param **.ueD2DTx[*].mobilityType "\"BonnMotionMobility\""
param **.usePreconfiguredTxParams false
param *.eNodeB*.numX2Apps 1
param *.eNodeB*.x2App[*].server.localPort "5000 + ancestorIndex(1)"
param *.eNodeB.d2dCapable false
param *.eNodeB.mobility.initFromDisplayString false
param *.eNodeB.mobility.initialX 300m
param *.eNodeB.mobility.initialY 300m
param *.eNodeB.nic.phy.enableD2DCqiReporting true
param *.eNodeB.txPower 19952.62315mw
param *.eNodeB.x2App[0].client.connectAddress "\"eNodeB1%x2ppp0\""
param *.eNodeB1.d2dCapable true
param *.eNodeB1.mobility.initFromDisplayString false
param *.eNodeB1.mobility.initialX 700m
param *.eNodeB1.mobility.initialY 300m
param *.eNodeB1.nic.phy.enableD2DCqiReporting true
param *.eNodeB1.txPower 19952.62315mw
param *.eNodeB1.x2App[0].client.connectAddress "\"eNodeB%x2ppp0\""
param *.extCell[*].bandAllocationType "${extAllocType=\"FULL_ALLOC\",\"RANDOM_ALLOC\",\"CONTIGUOUS_ALLOC\"}"
param *.extCell[*].bandUtilization 0.5
param *.extCell[*].txDirection "\"ANISOTROPIC\""
param *.extCell[*].txPower 20
param *.extCell[0].position_x 100m
param *.extCell[0].position_y 600m
param *.extCell[0].txAngle 315
param *.extCell[1].position_x 600m
param *.extCell[1].position_y 600m
param *.extCell[1].txAngle 225
param *.numExtCells 2
param *.numUeCell 0
param *.numUeD2DRx 1
param *.numUeD2DTx 1
param *.ue*.macCellId 1
param *.ue*.masterId 1
param *.ue*.mobility.initFromDisplayString false
param *.ue*[0].macCellId 1
param *.ue*[0].masterId 1
param *.ue*[0].mobility.initFromDisplayString false
param *.ueD2D*.numTcpApps 1
param *.ueD2D*[*].d2dCapable true
param *.ueD2D*[0].d2dCapable false
param *.ueD2D*[0].numTcpApps 1
param *.ueD2DRx[0].mobility.initialX 310m
param *.ueD2DRx[0].mobility.initialY 350m
param *.ueD2DRx[0].tcpApp[*].localPort 1000
param *.ueD2DRx[0].tcpApp[*].typename "\"TCPSinkApp\""
param *.ueD2DTx*.nic.d2dPeerAddresses "\"ueD2DTx[1]\""
param *.ueD2DTx*.tcpApp[*].connectAddress "\"ueD2DTx[0]\""
param *.ueD2DTx*.tcpApp[*].localAddress "\"ueD2DTx\""
param *.ueD2DTx*.tcpApp[*].localPort 1000
param *.ueD2DTx*.tcpApp[*].sendBytes 1GiB
param *.ueD2DTx*.tcpApp[*].typename "\"TCPSessionApp\""
param *.ueD2DTx*.tcpApp[0].active true
param *.ueD2DTx*.tcpApp[0].connectPort 1000
param *.ueD2DTx*.tcpApp[0].tOpen uniform(0.010s,0.1s)
param *.ueD2DTx*.tcpApp[0].tSend uniform(0.15s,0.5s)
param *.ueD2DTx[0].mobility.initialX 290m
param *.ueD2DTx[0].mobility.initialY 350m
param *.ueD2DTx[0].tcpApp[*].localPort 1000
param *.ueD2DTx[0].tcpApp[*].sendBytes 1GiB
param *.ueD2DTx[0].tcpApp[*].typename "\"TCPSessionApp\""
param *.ueD2DTx[0].tcpApp[0].active true
param *.ueD2DTx[0].tcpApp[0].connectAddress "\"ueD2DRx[0]\""
param *.ueD2DTx[0].tcpApp[0].connectPort 1000
param *.ueD2DTx[0].tcpApp[0].localAddress "\"ueD2DTx[0]\""
param *.ueD2DTx[0].tcpApp[0].tOpen uniform(0.010s,0.1s)
param *.ueD2DTx[0].tcpApp[0].tSend uniform(0.15s,0.5s)
param *.ueD2DTx[1].mobility.initialX 690m
param *.ueD2DTx[1].mobility.initialY 250m

vector 8  CAIN.server.ppp[0].queue  queueLength:vector  ETV
attr interpolationmode  sample-hold
attr title  "queue length, vector"
vector 9  CAIN.server.ppp[0].ppp  txState:vector  ETV
attr interpolationmode  sample-hold
attr title  "tx state, vector"
vector 24  CAIN.router.ppp[0].queue  queueLength:vector  ETV
attr interpolationmode  sample-hold
attr title  "queue length, vector"
vector 25  CAIN.router.ppp[0].ppp  txState:vector  ETV
attr interpolationmode  sample-hold
attr title  "tx state, vector"
vector 35  CAIN.router.ppp[1].queue  queueLength:vector  ETV
attr interpolationmode  sample-hold
attr title  "queue length, vector"
vector 36  CAIN.router.ppp[1].ppp  txState:vector  ETV
attr interpolationmode  sample-hold
attr title  "tx state, vector"
vector 56  CAIN.pgw.ppp[0].queue  queueLength:vector  ETV
attr interpolationmode  sample-hold
attr title  "queue length, vector"
vector 57  CAIN.pgw.ppp[0].ppp  txState:vector  ETV
attr interpolationmode  sample-hold
attr title  "tx state, vector"
vector 67  CAIN.pgw.ppp[1].queue  queueLength:vector  ETV
attr interpolationmode  sample-hold
attr title  "queue length, vector"
vector 68  CAIN.pgw.ppp[1].ppp  txState:vector  ETV
attr interpolationmode  sample-hold
attr title  "tx state, vector"
vector 78  CAIN.pgw.pppInterface.queue  queueLength:vector  ETV
attr interpolationmode  sample-hold
attr title  "queue length, vector"
vector 79  CAIN.pgw.pppInterface.ppp  txState:vector  ETV
attr interpolationmode  sample-hold
attr title  "tx state, vector"
vector 120  CAIN.eNodeB.pppIf.queue  queueLength:vector  ETV
attr interpolationmode  sample-hold
attr title  "queue length, vector"
vector 121  CAIN.eNodeB.pppIf.ppp  txState:vector  ETV
attr interpolationmode  sample-hold
attr title  "tx state, vector"
vector 131  CAIN.eNodeB.x2ppp[0].queue  queueLength:vector  ETV
attr interpolationmode  sample-hold
attr title  "queue length, vector"
vector 132  CAIN.eNodeB.x2ppp[0].ppp  txState:vector  ETV
attr interpolationmode  sample-hold
attr title  "tx state, vector"
vector 178  CAIN.eNodeB1.pppIf.queue  queueLength:vector  ETV
attr interpolationmode  sample-hold
attr title  "queue length, vector"
vector 179  CAIN.eNodeB1.pppIf.ppp  txState:vector  ETV
attr interpolationmode  sample-hold
attr title  "tx state, vector"
vector 189  CAIN.eNodeB1.x2ppp[0].queue  queueLength:vector  ETV
attr interpolationmode  sample-hold
attr title  "queue length, vector"
vector 190  CAIN.eNodeB1.x2ppp[0].ppp  txState:vector  ETV
attr interpolationmode  sample-hold
attr title  "tx state, vector"
vector 231  CAIN.ueD2DTx[0].nic.phy  servingCell:vector  ETV
attr source  servingCell
attr title  "ID of the serving eNodeB for the UE, vector"
attr unit  ""
vector 263  CAIN.ueD2DTx[1].nic.phy  servingCell:vector  ETV
attr source  servingCell
attr title  "ID of the serving eNodeB for the UE, vector"
attr unit  ""
vector 295  CAIN.ueD2DTx[2].nic.phy  servingCell:vector  ETV
attr source  servingCell
attr title  "ID of the serving eNodeB for the UE, vector"
attr unit  ""
vector 327  CAIN.ueD2DTx[3].nic.phy  servingCell:vector  ETV
attr source  servingCell
attr title  "ID of the serving eNodeB for the UE, vector"
attr unit  ""
vector 359  CAIN.ueD2DTx[4].nic.phy  servingCell:vector  ETV
attr source  servingCell
attr title  "ID of the serving eNodeB for the UE, vector"
attr unit  ""
vector 391  CAIN.ueD2DTx[5].nic.phy  servingCell:vector  ETV
attr source  servingCell
attr title  "ID of the serving eNodeB for the UE, vector"
attr unit  ""
vector 423  CAIN.ueD2DTx[6].nic.phy  servingCell:vector  ETV
attr source  servingCell
attr title  "ID of the serving eNodeB for the UE, vector"
attr unit  ""
vector 455  CAIN.ueD2DTx[7].nic.phy  servingCell:vector  ETV
attr source  servingCell
attr title  "ID of the serving eNodeB for the UE, vector"
attr unit  ""
vector 487  CAIN.ueD2DTx[8].nic.phy  servingCell:vector  ETV
attr source  servingCell
attr title  "ID of the serving eNodeB for the UE, vector"
attr unit  ""
vector 519  CAIN.ueD2DTx[9].nic.phy  servingCell:vector  ETV
attr source  servingCell
attr title  "ID of the serving eNodeB for the UE, vector"
attr unit  ""
vector 551  CAIN.ueD2DTx[10].nic.phy  servingCell:vector  ETV
attr source  servingCell
attr title  "ID of the serving eNodeB for the UE, vector"
attr unit  ""
vector 583  CAIN.ueD2DTx[11].nic.phy  servingCell:vector  ETV
attr source  servingCell
attr title  "ID of the serving eNodeB for the UE, vector"
attr unit  ""
vector 615  CAIN.ueD2DTx[12].nic.phy  servingCell:vector  ETV
attr source  servingCell
attr title  "ID of the serving eNodeB for the UE, vector"
attr unit  ""
vector 647  CAIN.ueD2DTx[13].nic.phy  servingCell:vector  ETV
attr source  servingCell
attr title  "ID of the serving eNodeB for the UE, vector"
attr unit  ""
vector 679  CAIN.ueD2DTx[14].nic.phy  servingCell:vector  ETV
attr source  servingCell
attr title  "ID of the serving eNodeB for the UE, vector"
attr unit  ""
vector 711  CAIN.ueD2DTx[15].nic.phy  servingCell:vector  ETV
attr source  servingCell
attr title  "ID of the serving eNodeB for the UE, vector"
attr unit  ""
vector 743  CAIN.ueD2DTx[16].nic.phy  servingCell:vector  ETV
attr source  servingCell
attr title  "ID of the serving eNodeB for the UE, vector"
attr unit  ""
vector 775  CAIN.ueD2DTx[17].nic.phy  servingCell:vector  ETV
attr source  servingCell
attr title  "ID of the serving eNodeB for the UE, vector"
attr unit  ""
vector 807  CAIN.ueD2DTx[18].nic.phy  servingCell:vector  ETV
attr source  servingCell
attr title  "ID of the serving eNodeB for the UE, vector"
attr unit  ""
vector 839  CAIN.ueD2DTx[19].nic.phy  servingCell:vector  ETV
attr source  servingCell
attr title  "ID of the serving eNodeB for the UE, vector"
attr unit  ""
vector 863  CAIN.eNodeB.sctp  "Throughput of Association 3"  ETV
vector 885  CAIN.eNodeB1.sctp  "Throughput of Association 4"  ETV
vector 907  CAIN.eNodeB.sctp  "Throughput of Association 1"  ETV
vector 927  CAIN.eNodeB.sctp  "Fast Recovery State 1:10.0.5.2"  ETV
vector 956  CAIN.eNodeB1.sctp  "Throughput of Association 2"  ETV
vector 976  CAIN.eNodeB1.sctp  "Fast Recovery State 2:10.0.5.1"  ETV
vector 128  CAIN.eNodeB.x2ppp[0].queue  rcvdPk:vector(packetBytes)  ETV
attr interpolationmode  none
attr title  "received packets, vector(packetBytes)"
vector 130  CAIN.eNodeB.x2ppp[0].queue  queueingTime:vector  ETV
attr interpolationmode  none
attr title  "queueing time, vector"
vector 186  CAIN.eNodeB1.x2ppp[0].queue  rcvdPk:vector(packetBytes)  ETV
attr interpolationmode  none
attr title  "received packets, vector(packetBytes)"
vector 188  CAIN.eNodeB1.x2ppp[0].queue  queueingTime:vector  ETV
attr interpolationmode  none
attr title  "queueing time, vector"
vector 137  CAIN.eNodeB.x2ppp[0].ppp  rcvdPkFromHL:vector(packetBytes)  ETV
attr interpolationmode  none
attr source  packetReceivedFromUpper
attr title  "packets received from higher layer, vector(packetBytes)"
vector 133  CAIN.eNodeB.x2ppp[0].ppp  txPk:vector(packetBytes)  ETV
attr interpolationmode  none
attr source  packetSentToLower
attr title  "packets transmitted, vector(packetBytes)"
vector 195  CAIN.eNodeB1.x2ppp[0].ppp  rcvdPkFromHL:vector(packetBytes)  ETV
attr interpolationmode  none
attr source  packetReceivedFromUpper
attr title  "packets received from higher layer, vector(packetBytes)"
vector 191  CAIN.eNodeB1.x2ppp[0].ppp  txPk:vector(packetBytes)  ETV
attr interpolationmode  none
attr source  packetSentToLower
attr title  "packets transmitted, vector(packetBytes)"
vector 192  CAIN.eNodeB1.x2ppp[0].ppp  rxPkOk:vector(packetBytes)  ETV
attr interpolationmode  none
attr source  rxPkOk
attr title  "packets received OK, vector(packetBytes)"
vector 196  CAIN.eNodeB1.x2ppp[0].ppp  passedUpPk:vector(packetBytes)  ETV
attr interpolationmode  none
attr source  packetSentToUpper
attr title  "packets passed to higher layer, vector(packetBytes)"
vector 134  CAIN.eNodeB.x2ppp[0].ppp  rxPkOk:vector(packetBytes)  ETV
attr interpolationmode  none
attr source  rxPkOk
attr title  "packets received OK, vector(packetBytes)"
vector 138  CAIN.eNodeB.x2ppp[0].ppp  passedUpPk:vector(packetBytes)  ETV
attr interpolationmode  none
attr source  packetSentToUpper
attr title  "packets passed to higher layer, vector(packetBytes)"
vector 1005  CAIN.eNodeB1.sctp  "Throughput of Association 4"  ETV
vector 882  CAIN.eNodeB1.sctp  "Peer Rwnd 4"  ETV
vector 1025  CAIN.eNodeB1.sctp  "Fast Recovery State 5:10.0.4.1"  ETV
vector 1052  CAIN.eNodeB1.sctp  "Fast Recovery State 5:10.0.2.2"  ETV
vector 1079  CAIN.eNodeB1.sctp  "Fast Recovery State 5:10.0.5.1"  ETV
vector 1108  CAIN.eNodeB.sctp  "Throughput of Association 3"  ETV
vector 860  CAIN.eNodeB.sctp  "Peer Rwnd 3"  ETV
vector 1128  CAIN.eNodeB.sctp  "Fast Recovery State 6:10.0.4.2"  ETV
vector 1155  CAIN.eNodeB.sctp  "Fast Recovery State 6:10.0.3.2"  ETV
vector 1182  CAIN.eNodeB.sctp  "Fast Recovery State 6:10.0.5.2"  ETV
vector 904  CAIN.eNodeB.sctp  "Peer Rwnd 1"  ETV
vector 1209  CAIN.eNodeB.sctp  "Fast Recovery State 1:10.0.4.2"  ETV
vector 1236  CAIN.eNodeB.sctp  "Fast Recovery State 1:10.0.3.2"  ETV
vector 953  CAIN.eNodeB1.sctp  "Peer Rwnd 2"  ETV
vector 1263  CAIN.eNodeB1.sctp  "Fast Recovery State 2:10.0.4.1"  ETV
vector 1290  CAIN.eNodeB1.sctp  "Fast Recovery State 2:10.0.2.2"  ETV
vector 1035  CAIN.eNodeB1.sctp  "Slow Start Threshold 5:10.0.2.2"  ETV
vector 1036  CAIN.eNodeB1.sctp  "Congestion Window 5:10.0.2.2"  ETV
vector 1037  CAIN.eNodeB1.sctp  "Bandwidth 5:10.0.2.2"  ETV
vector 1040  CAIN.eNodeB1.sctp  "HB Sent 5:10.0.2.2"  ETV
vector 1033  CAIN.eNodeB1.sctp  "RTO 5:10.0.2.2"  ETV
vector 1008  CAIN.eNodeB1.sctp  "Slow Start Threshold 5:10.0.4.1"  ETV
vector 1009  CAIN.eNodeB1.sctp  "Congestion Window 5:10.0.4.1"  ETV
vector 1010  CAIN.eNodeB1.sctp  "Bandwidth 5:10.0.4.1"  ETV
vector 1013  CAIN.eNodeB1.sctp  "HB Sent 5:10.0.4.1"  ETV
vector 1006  CAIN.eNodeB1.sctp  "RTO 5:10.0.4.1"  ETV
vector 1062  CAIN.eNodeB1.sctp  "Slow Start Threshold 5:10.0.5.1"  ETV
vector 1063  CAIN.eNodeB1.sctp  "Congestion Window 5:10.0.5.1"  ETV
vector 1064  CAIN.eNodeB1.sctp  "Bandwidth 5:10.0.5.1"  ETV
vector 1060  CAIN.eNodeB1.sctp  "RTO 5:10.0.5.1"  ETV
vector 1138  CAIN.eNodeB.sctp  "Slow Start Threshold 6:10.0.3.2"  ETV
vector 1139  CAIN.eNodeB.sctp  "Congestion Window 6:10.0.3.2"  ETV
vector 1140  CAIN.eNodeB.sctp  "Bandwidth 6:10.0.3.2"  ETV
vector 1143  CAIN.eNodeB.sctp  "HB Sent 6:10.0.3.2"  ETV
vector 1136  CAIN.eNodeB.sctp  "RTO 6:10.0.3.2"  ETV
vector 1111  CAIN.eNodeB.sctp  "Slow Start Threshold 6:10.0.4.2"  ETV
vector 1112  CAIN.eNodeB.sctp  "Congestion Window 6:10.0.4.2"  ETV
vector 1113  CAIN.eNodeB.sctp  "Bandwidth 6:10.0.4.2"  ETV
vector 1116  CAIN.eNodeB.sctp  "HB Sent 6:10.0.4.2"  ETV
vector 1109  CAIN.eNodeB.sctp  "RTO 6:10.0.4.2"  ETV
vector 1165  CAIN.eNodeB.sctp  "Slow Start Threshold 6:10.0.5.2"  ETV
vector 1166  CAIN.eNodeB.sctp  "Congestion Window 6:10.0.5.2"  ETV
vector 1167  CAIN.eNodeB.sctp  "Bandwidth 6:10.0.5.2"  ETV
vector 1163  CAIN.eNodeB.sctp  "RTO 6:10.0.5.2"  ETV
vector 916  CAIN.eNodeB.sctp  "HB ACK Sent 1:10.0.5.2"  ETV
vector 917  CAIN.eNodeB.sctp  "HB Received 1:10.0.5.2"  ETV
vector 965  CAIN.eNodeB1.sctp  "HB ACK Sent 2:10.0.5.1"  ETV
vector 966  CAIN.eNodeB1.sctp  "HB Received 2:10.0.5.1"  ETV
vector 1219  CAIN.eNodeB.sctp  "Slow Start Threshold 1:10.0.3.2"  ETV
vector 1220  CAIN.eNodeB.sctp  "Congestion Window 1:10.0.3.2"  ETV
vector 1221  CAIN.eNodeB.sctp  "Bandwidth 1:10.0.3.2"  ETV
vector 1224  CAIN.eNodeB.sctp  "HB Sent 1:10.0.3.2"  ETV
vector 1217  CAIN.eNodeB.sctp  "RTO 1:10.0.3.2"  ETV
vector 1192  CAIN.eNodeB.sctp  "Slow Start Threshold 1:10.0.4.2"  ETV
vector 1193  CAIN.eNodeB.sctp  "Congestion Window 1:10.0.4.2"  ETV
vector 1194  CAIN.eNodeB.sctp  "Bandwidth 1:10.0.4.2"  ETV
vector 1197  CAIN.eNodeB.sctp  "HB Sent 1:10.0.4.2"  ETV
vector 1190  CAIN.eNodeB.sctp  "RTO 1:10.0.4.2"  ETV
vector 910  CAIN.eNodeB.sctp  "Slow Start Threshold 1:10.0.5.2"  ETV
vector 911  CAIN.eNodeB.sctp  "Congestion Window 1:10.0.5.2"  ETV
vector 912  CAIN.eNodeB.sctp  "Bandwidth 1:10.0.5.2"  ETV
vector 908  CAIN.eNodeB.sctp  "RTO 1:10.0.5.2"  ETV
vector 1273  CAIN.eNodeB1.sctp  "Slow Start Threshold 2:10.0.2.2"  ETV
vector 1274  CAIN.eNodeB1.sctp  "Congestion Window 2:10.0.2.2"  ETV
vector 1275  CAIN.eNodeB1.sctp  "Bandwidth 2:10.0.2.2"  ETV
vector 1278  CAIN.eNodeB1.sctp  "HB Sent 2:10.0.2.2"  ETV
vector 1271  CAIN.eNodeB1.sctp  "RTO 2:10.0.2.2"  ETV
vector 1246  CAIN.eNodeB1.sctp  "Slow Start Threshold 2:10.0.4.1"  ETV
vector 1247  CAIN.eNodeB1.sctp  "Congestion Window 2:10.0.4.1"  ETV
vector 1248  CAIN.eNodeB1.sctp  "Bandwidth 2:10.0.4.1"  ETV
vector 1251  CAIN.eNodeB1.sctp  "HB Sent 2:10.0.4.1"  ETV
vector 1244  CAIN.eNodeB1.sctp  "RTO 2:10.0.4.1"  ETV
vector 959  CAIN.eNodeB1.sctp  "Slow Start Threshold 2:10.0.5.1"  ETV
vector 960  CAIN.eNodeB1.sctp  "Congestion Window 2:10.0.5.1"  ETV
vector 961  CAIN.eNodeB1.sctp  "Bandwidth 2:10.0.5.1"  ETV
vector 957  CAIN.eNodeB1.sctp  "RTO 2:10.0.5.1"  ETV
vector 1173  CAIN.eNodeB.sctp  "HB ACK Received 6:10.0.5.2"  ETV
vector 1164  CAIN.eNodeB.sctp  "RTT 6:10.0.5.2"  ETV
vector 1070  CAIN.eNodeB1.sctp  "HB ACK Received 5:10.0.5.1"  ETV
vector 1061  CAIN.eNodeB1.sctp  "RTT 5:10.0.5.1"  ETV
vector 1171  CAIN.eNodeB.sctp  "HB ACK Sent 6:10.0.5.2"  ETV
vector 1172  CAIN.eNodeB.sctp  "HB Received 6:10.0.5.2"  ETV
vector 1068  CAIN.eNodeB1.sctp  "HB ACK Sent 5:10.0.5.1"  ETV
vector 1069  CAIN.eNodeB1.sctp  "HB Received 5:10.0.5.1"  ETV
vector 967  CAIN.eNodeB1.sctp  "HB ACK Received 2:10.0.5.1"  ETV
vector 958  CAIN.eNodeB1.sctp  "RTT 2:10.0.5.1"  ETV
vector 918  CAIN.eNodeB.sctp  "HB ACK Received 1:10.0.5.2"  ETV
vector 909  CAIN.eNodeB.sctp  "RTT 1:10.0.5.2"  ETV
vector 96  CAIN.eNodeB.nic.mac  receivedPacketFromLowerLayer:vector(packetBytes)  ETV
attr interpolationmode  none
attr source  receivedPacketFromLowerLayer
vector 1305  CAIN.eNodeB.sctp  "SendQueue of Association 6"  ETV
vector 1168  CAIN.eNodeB.sctp  "TSN Sent 6:10.0.5.2"  ETV
vector 1175  CAIN.eNodeB.sctp  "Outstanding Bytes 6:10.0.5.2"  ETV
vector 848  CAIN.eNodeB.sctp  "Outstanding Bytes 3:Total"  ETV
vector 1174  CAIN.eNodeB.sctp  "Queued Sent Bytes 6:10.0.5.2"  ETV
vector 847  CAIN.eNodeB.sctp  "Queued Sent Bytes 3:Total"  ETV
vector 963  CAIN.eNodeB1.sctp  "TSN Received 2:10.0.5.1"  ETV
vector 939  CAIN.eNodeB1.sctp  "Queued Received Bytes 2:Total"  ETV
vector 935  CAIN.eNodeB1.sctp  "Advertised Receiver Window 2"  ETV
vector 944  CAIN.eNodeB1.sctp  "Number of Total Gap Blocks Stored 2"  ETV
vector 945  CAIN.eNodeB1.sctp  "Number of Revokable Gap Blocks Stored 2"  ETV
vector 946  CAIN.eNodeB1.sctp  "Number of Non-Revokable Gap Blocks Stored 2"  ETV
vector 947  CAIN.eNodeB1.sctp  "Number of Duplicate TSNs Stored 2"  ETV
vector 951  CAIN.eNodeB1.sctp  "Length of SACK Sent 2"  ETV
vector 948  CAIN.eNodeB1.sctp  "Number of Revokable Gap Blocks Sent 2"  ETV
vector 949  CAIN.eNodeB1.sctp  "Number of Non-Revokable Gap Blocks Sent 2"  ETV
vector 950  CAIN.eNodeB1.sctp  "Number of Duplicate TSNs Sent 2"  ETV
vector 955  CAIN.eNodeB1.sctp  "End to End Delay of Association 2"  ETV
vector 199  CAIN.eNodeB1.x2App[0].client  rcvdPk:vector(packetBytes)  ETV
attr interpolationmode  none
attr source  rcvdPk
attr title  "packets received, vector(packetBytes)"
vector 1304  CAIN.eNodeB.sctp  "Number of Gap Blocks in Last SACK of Association 6"  ETV
vector 849  CAIN.eNodeB.sctp  "Number of Revokable Gap Blocks in SACK 3"  ETV
vector 850  CAIN.eNodeB.sctp  "Number of Non-Revokable Gap Blocks in SACK 3"  ETV
vector 1185  CAIN.eNodeB.sctp  "TSN Acked CumAck 6:10.0.5.2"  ETV
vector 1151  CAIN.eNodeB.sctp  "Number of Gap Acked Chunks in Last SACK 6:10.0.3.2"  ETV
vector 1152  CAIN.eNodeB.sctp  "Number of Non-Revokable Gap Acked Chunks in Last SACK 6:10.0.3.2"  ETV
vector 1153  CAIN.eNodeB.sctp  "Number of Gap Missed Chunks in Last SACK 6:10.0.3.2"  ETV
vector 1124  CAIN.eNodeB.sctp  "Number of Gap Acked Chunks in Last SACK 6:10.0.4.2"  ETV
vector 1125  CAIN.eNodeB.sctp  "Number of Non-Revokable Gap Acked Chunks in Last SACK 6:10.0.4.2"  ETV
vector 1126  CAIN.eNodeB.sctp  "Number of Gap Missed Chunks in Last SACK 6:10.0.4.2"  ETV
vector 1178  CAIN.eNodeB.sctp  "Number of Gap Acked Chunks in Last SACK 6:10.0.5.2"  ETV
vector 1179  CAIN.eNodeB.sctp  "Number of Non-Revokable Gap Acked Chunks in Last SACK 6:10.0.5.2"  ETV
vector 1180  CAIN.eNodeB.sctp  "Number of Gap Missed Chunks in Last SACK 6:10.0.5.2"  ETV
vector 859  CAIN.eNodeB.sctp  "Arwnd in Last SACK 3"  ETV
vector 1187  CAIN.eNodeB.sctp  "TSN PseudoCumAck 6:10.0.5.2"  ETV
vector 1188  CAIN.eNodeB.sctp  "TSN RTXPseudoCumAck 6:10.0.5.2"  ETV
vector 1181  CAIN.eNodeB.sctp  "Partial Bytes Acked 6:10.0.5.2"  ETV
vector 1333  CAIN.ueD2DTx[12].tcp  tcpRcvQueueBytes  ETV
vector 1320  CAIN.ueD2DTx[12].tcp  "advertised window"  ETV
vector 1319  CAIN.ueD2DTx[12].tcp  "receive window"  ETV
vector 1322  CAIN.ueD2DTx[12].tcp  "sent ack"  ETV
vector 589  CAIN.ueD2DTx[12].nic.pdcpRrc  receivedPacketFromUpperLayer:vector(packetBytes)  ETV
attr interpolationmode  none
attr source  receivedPacketFromUpperLayer
vector 592  CAIN.ueD2DTx[12].nic.pdcpRrc  sentPacketToLowerLayer:vector(packetBytes)  ETV
attr interpolationmode  none
attr source  sentPacketToLowerLayer
vector 593  CAIN.ueD2DTx[12].nic.mac  receivedPacketFromUpperLayer:vector(packetBytes)  ETV
attr interpolationmode  none
attr source  receivedPacketFromUpperLayer
vector 603  CAIN.ueD2DTx[12].nic.mac  CainHopMessageSent:vector  ETV
attr interpolationmode  none
attr title  "# of Sent CAIN hop message, vector"
vector 596  CAIN.ueD2DTx[12].nic.mac  sentPacketToLowerLayer:vector(packetBytes)  ETV
attr interpolationmode  none
attr source  sentPacketToLowerLayer
vector 210  CAIN.ueD2DTx[0].nic.mac  receivedPacketFromLowerLayer:vector(packetBytes)  ETV
attr interpolationmode  none
attr source  receivedPacketFromLowerLayer
vector 212  CAIN.ueD2DTx[0].nic.mac  sentPacketToLowerLayer:vector(packetBytes)  ETV
attr interpolationmode  none
attr source  sentPacketToLowerLayer
vector 242  CAIN.ueD2DTx[1].nic.mac  receivedPacketFromLowerLayer:vector(packetBytes)  ETV
attr interpolationmode  none
attr source  receivedPacketFromLowerLayer
vector 244  CAIN.ueD2DTx[1].nic.mac  sentPacketToLowerLayer:vector(packetBytes)  ETV
attr interpolationmode  none
attr source  sentPacketToLowerLayer
vector 1357  CAIN.ueD2DTx[10].tcp  tcpRcvQueueBytes  ETV
vector 1344  CAIN.ueD2DTx[10].tcp  "advertised window"  ETV
vector 1343  CAIN.ueD2DTx[10].tcp  "receive window"  ETV
vector 1346  CAIN.ueD2DTx[10].tcp  "sent ack"  ETV
vector 525  CAIN.ueD2DTx[10].nic.pdcpRrc  receivedPacketFromUpperLayer:vector(packetBytes)  ETV
attr interpolationmode  none
attr source  receivedPacketFromUpperLayer
vector 528  CAIN.ueD2DTx[10].nic.pdcpRrc  sentPacketToLowerLayer:vector(packetBytes)  ETV
attr interpolationmode  none
attr source  sentPacketToLowerLayer
vector 529  CAIN.ueD2DTx[10].nic.mac  receivedPacketFromUpperLayer:vector(packetBytes)  ETV
attr interpolationmode  none
attr source  receivedPacketFromUpperLayer
vector 532  CAIN.ueD2DTx[10].nic.mac  sentPacketToLowerLayer:vector(packetBytes)  ETV
attr interpolationmode  none
attr source  sentPacketToLowerLayer
vector 111  CAIN.eNodeB.nic.mac  racpkt:vector  ETV
attr interpolationmode  none
attr title  "eNB received racpkt message, vector"
vector 112  CAIN.eNodeB.nic.mac  racDistanceSignal:vector  ETV
attr interpolationmode  none
attr title  "Rac distance to enb, vector"
vector 113  CAIN.eNodeB.nic.mac  racServedDevsSignal:vector  ETV
attr interpolationmode  none
attr title  "# of devices served on rac arriavall, vector"
vector 106  CAIN.eNodeB.nic.mac  DistanceSignal:vector  ETV
attr interpolationmode  none
attr title  "Distance to enb, vector"
vector 101  CAIN.eNodeB.nic.mac  CainHopMessage:vector  ETV
attr interpolationmode  none
attr title  "eNB received CAIN hop message, vector"
vector 98  CAIN.eNodeB.nic.mac  sentPacketToLowerLayer:vector(packetBytes)  ETV
attr interpolationmode  none
attr source  sentPacketToLowerLayer
vector 249  CAIN.ueD2DTx[1].nic.mac  DropedHopMessage:vector  ETV
attr interpolationmode  none
attr title  "Droped Hop CAIN message due to RB not available, vector"
vector 530  CAIN.ueD2DTx[10].nic.mac  receivedPacketFromLowerLayer:vector(packetBytes)  ETV
attr interpolationmode  none
attr source  receivedPacketFromLowerLayer
vector 1381  CAIN.ueD2DTx[3].tcp  tcpRcvQueueBytes  ETV
vector 1368  CAIN.ueD2DTx[3].tcp  "advertised window"  ETV
vector 1367  CAIN.ueD2DTx[3].tcp  "receive window"  ETV
vector 1370  CAIN.ueD2DTx[3].tcp  "sent ack"  ETV
vector 301  CAIN.ueD2DTx[3].nic.pdcpRrc  receivedPacketFromUpperLayer:vector(packetBytes)  ETV
attr interpolationmode  none
attr source  receivedPacketFromUpperLayer
vector 304  CAIN.ueD2DTx[3].nic.pdcpRrc  sentPacketToLowerLayer:vector(packetBytes)  ETV
attr interpolationmode  none
attr source  sentPacketToLowerLayer
vector 305  CAIN.ueD2DTx[3].nic.mac  receivedPacketFromUpperLayer:vector(packetBytes)  ETV
attr interpolationmode  none
attr source  receivedPacketFromUpperLayer
vector 315  CAIN.ueD2DTx[3].nic.mac  CainHopMessageSent:vector  ETV
attr interpolationmode  none
attr title  "# of Sent CAIN hop message, vector"
vector 308  CAIN.ueD2DTx[3].nic.mac  sentPacketToLowerLayer:vector(packetBytes)  ETV
attr interpolationmode  none
attr source  sentPacketToLowerLayer
vector 531  CAIN.ueD2DTx[10].nic.mac  sentPacketToUpperLayer:vector(packetBytes)  ETV
attr interpolationmode  none
attr source  sentPacketToUpperLayer
vector 115  CAIN.eNodeB.nic.phy  averageCqiUlvect:vector  ETV
attr source  averageCqiUlvect
attr title  "Average Cqi reported in UL, vector"
attr unit  cqi
vector 1405  CAIN.ueD2DTx[19].tcp  tcpRcvQueueBytes  ETV
vector 1392  CAIN.ueD2DTx[19].tcp  "advertised window"  ETV
vector 1391  CAIN.ueD2DTx[19].tcp  "receive window"  ETV
vector 1394  CAIN.ueD2DTx[19].tcp  "sent ack"  ETV
vector 813  CAIN.ueD2DTx[19].nic.pdcpRrc  receivedPacketFromUpperLayer:vector(packetBytes)  ETV
attr interpolationmode  none
attr source  receivedPacketFromUpperLayer
vector 816  CAIN.ueD2DTx[19].nic.pdcpRrc  sentPacketToLowerLayer:vector(packetBytes)  ETV
attr interpolationmode  none
attr source  sentPacketToLowerLayer
vector 817  CAIN.ueD2DTx[19].nic.mac  receivedPacketFromUpperLayer:vector(packetBytes)  ETV
attr interpolationmode  none
attr source  receivedPacketFromUpperLayer
vector 820  CAIN.ueD2DTx[19].nic.mac  sentPacketToLowerLayer:vector(packetBytes)  ETV
attr interpolationmode  none
attr source  sentPacketToLowerLayer
vector 99  CAIN.eNodeB.nic.mac  measuredItbs:vector  ETV
attr source  measuredItbs
attr title  "TBS index, vector"
attr unit  ""
vector 818  CAIN.ueD2DTx[19].nic.mac  receivedPacketFromLowerLayer:vector(packetBytes)  ETV
attr interpolationmode  none
attr source  receivedPacketFromLowerLayer
vector 1429  CAIN.ueD2DTx[16].tcp  tcpRcvQueueBytes  ETV
vector 1416  CAIN.ueD2DTx[16].tcp  "advertised window"  ETV
vector 1415  CAIN.ueD2DTx[16].tcp  "receive window"  ETV
vector 1418  CAIN.ueD2DTx[16].tcp  "sent ack"  ETV
vector 717  CAIN.ueD2DTx[16].nic.pdcpRrc  receivedPacketFromUpperLayer:vector(packetBytes)  ETV
attr interpolationmode  none
attr source  receivedPacketFromUpperLayer
vector 720  CAIN.ueD2DTx[16].nic.pdcpRrc  sentPacketToLowerLayer:vector(packetBytes)  ETV
attr interpolationmode  none
attr source  sentPacketToLowerLayer
vector 721  CAIN.ueD2DTx[16].nic.mac  receivedPacketFromUpperLayer:vector(packetBytes)  ETV
attr interpolationmode  none
attr source  receivedPacketFromUpperLayer
vector 731  CAIN.ueD2DTx[16].nic.mac  CainHopMessageSent:vector  ETV
attr interpolationmode  none
attr title  "# of Sent CAIN hop message, vector"
vector 724  CAIN.ueD2DTx[16].nic.mac  sentPacketToLowerLayer:vector(packetBytes)  ETV
attr interpolationmode  none
attr source  sentPacketToLowerLayer
vector 819  CAIN.ueD2DTx[19].nic.mac  sentPacketToUpperLayer:vector(packetBytes)  ETV
attr interpolationmode  none
attr source  sentPacketToUpperLayer
vector 97  CAIN.eNodeB.nic.mac  sentPacketToUpperLayer:vector(packetBytes)  ETV
attr interpolationmode  none
attr source  sentPacketToUpperLayer
vector 92  CAIN.eNodeB.nic.pdcpRrc  receivedPacketFromLowerLayer:vector(packetBytes)  ETV
attr interpolationmode  none
attr source  receivedPacketFromLowerLayer
vector 93  CAIN.eNodeB.nic.pdcpRrc  sentPacketToUpperLayer:vector(packetBytes)  ETV
attr interpolationmode  none
attr source  sentPacketToUpperLayer
vector 91  CAIN.eNodeB.nic.pdcpRrc  receivedPacketFromUpperLayer:vector(packetBytes)  ETV
attr interpolationmode  none
attr source  receivedPacketFromUpperLayer
vector 94  CAIN.eNodeB.nic.pdcpRrc  sentPacketToLowerLayer:vector(packetBytes)  ETV
attr interpolationmode  none
attr source  sentPacketToLowerLayer
vector 95  CAIN.eNodeB.nic.mac  receivedPacketFromUpperLayer:vector(packetBytes)  ETV
attr interpolationmode  none
attr source  receivedPacketFromUpperLayer
vector 1453  CAIN.ueD2DTx[5].tcp  tcpRcvQueueBytes  ETV
vector 1440  CAIN.ueD2DTx[5].tcp  "advertised window"  ETV
vector 1439  CAIN.ueD2DTx[5].tcp  "receive window"  ETV
vector 1442  CAIN.ueD2DTx[5].tcp  "sent ack"  ETV
vector 365  CAIN.ueD2DTx[5].nic.pdcpRrc  receivedPacketFromUpperLayer:vector(packetBytes)  ETV
attr interpolationmode  none
attr source  receivedPacketFromUpperLayer
vector 368  CAIN.ueD2DTx[5].nic.pdcpRrc  sentPacketToLowerLayer:vector(packetBytes)  ETV
attr interpolationmode  none
attr source  sentPacketToLowerLayer
vector 369  CAIN.ueD2DTx[5].nic.mac  receivedPacketFromUpperLayer:vector(packetBytes)  ETV
attr interpolationmode  none
attr source  receivedPacketFromUpperLayer
vector 379  CAIN.ueD2DTx[5].nic.mac  CainHopMessageSent:vector  ETV
attr interpolationmode  none
attr title  "# of Sent CAIN hop message, vector"
vector 372  CAIN.ueD2DTx[5].nic.mac  sentPacketToLowerLayer:vector(packetBytes)  ETV
attr interpolationmode  none
attr source  sentPacketToLowerLayer
vector 228  CAIN.ueD2DTx[0].nic.phy  averageCqiDlvect:vector  ETV
attr source  averageCqiDlvect
attr title  "Average Cqi reported in DL, vector"
attr unit  cqi
vector 211  CAIN.ueD2DTx[0].nic.mac  sentPacketToUpperLayer:vector(packetBytes)  ETV
attr interpolationmode  none
attr source  sentPacketToUpperLayer
vector 206  CAIN.ueD2DTx[0].nic.pdcpRrc  receivedPacketFromLowerLayer:vector(packetBytes)  ETV
attr interpolationmode  none
attr source  receivedPacketFromLowerLayer
vector 207  CAIN.ueD2DTx[0].nic.pdcpRrc  sentPacketToUpperLayer:vector(packetBytes)  ETV
attr interpolationmode  none
attr source  sentPacketToUpperLayer
vector 1477  CAIN.ueD2DTx[13].tcp  tcpRcvQueueBytes  ETV
vector 1464  CAIN.ueD2DTx[13].tcp  "advertised window"  ETV
vector 1463  CAIN.ueD2DTx[13].tcp  "receive window"  ETV
vector 1466  CAIN.ueD2DTx[13].tcp  "sent ack"  ETV
vector 621  CAIN.ueD2DTx[13].nic.pdcpRrc  receivedPacketFromUpperLayer:vector(packetBytes)  ETV
attr interpolationmode  none
attr source  receivedPacketFromUpperLayer
vector 624  CAIN.ueD2DTx[13].nic.pdcpRrc  sentPacketToLowerLayer:vector(packetBytes)  ETV
attr interpolationmode  none
attr source  sentPacketToLowerLayer
vector 625  CAIN.ueD2DTx[13].nic.mac  receivedPacketFromUpperLayer:vector(packetBytes)  ETV
attr interpolationmode  none
attr source  receivedPacketFromUpperLayer
vector 635  CAIN.ueD2DTx[13].nic.mac  CainHopMessageSent:vector  ETV
attr interpolationmode  none
attr title  "# of Sent CAIN hop message, vector"
vector 628  CAIN.ueD2DTx[13].nic.mac  sentPacketToLowerLayer:vector(packetBytes)  ETV
attr interpolationmode  none
attr source  sentPacketToLowerLayer
vector 1501  CAIN.ueD2DTx[11].tcp  tcpRcvQueueBytes  ETV
vector 1488  CAIN.ueD2DTx[11].tcp  "advertised window"  ETV
vector 1487  CAIN.ueD2DTx[11].tcp  "receive window"  ETV
vector 1490  CAIN.ueD2DTx[11].tcp  "sent ack"  ETV
vector 557  CAIN.ueD2DTx[11].nic.pdcpRrc  receivedPacketFromUpperLayer:vector(packetBytes)  ETV
attr interpolationmode  none
attr source  receivedPacketFromUpperLayer
vector 560  CAIN.ueD2DTx[11].nic.pdcpRrc  sentPacketToLowerLayer:vector(packetBytes)  ETV
attr interpolationmode  none
attr source  sentPacketToLowerLayer
vector 561  CAIN.ueD2DTx[11].nic.mac  receivedPacketFromUpperLayer:vector(packetBytes)  ETV
attr interpolationmode  none
attr source  receivedPacketFromUpperLayer
vector 1525  CAIN.ueD2DTx[8].tcp  tcpRcvQueueBytes  ETV
vector 1512  CAIN.ueD2DTx[8].tcp  "advertised window"  ETV
vector 1511  CAIN.ueD2DTx[8].tcp  "receive window"  ETV
vector 1514  CAIN.ueD2DTx[8].tcp  "sent ack"  ETV
vector 461  CAIN.ueD2DTx[8].nic.pdcpRrc  receivedPacketFromUpperLayer:vector(packetBytes)  ETV
attr interpolationmode  none
attr source  receivedPacketFromUpperLayer
vector 464  CAIN.ueD2DTx[8].nic.pdcpRrc  sentPacketToLowerLayer:vector(packetBytes)  ETV
attr interpolationmode  none
attr source  sentPacketToLowerLayer
vector 465  CAIN.ueD2DTx[8].nic.mac  receivedPacketFromUpperLayer:vector(packetBytes)  ETV
attr interpolationmode  none
attr source  receivedPacketFromUpperLayer
vector 474  CAIN.ueD2DTx[8].nic.mac  CainMessageSent:vector  ETV
attr interpolationmode  none
attr title  "# of Sent CAIN message, vector"
vector 468  CAIN.ueD2DTx[8].nic.mac  sentPacketToLowerLayer:vector(packetBytes)  ETV
attr interpolationmode  none
attr source  sentPacketToLowerLayer
vector 570  CAIN.ueD2DTx[11].nic.mac  CainMessageSent:vector  ETV
attr interpolationmode  none
attr title  "# of Sent CAIN message, vector"
vector 564  CAIN.ueD2DTx[11].nic.mac  sentPacketToLowerLayer:vector(packetBytes)  ETV
attr interpolationmode  none
attr source  sentPacketToLowerLayer
vector 434  CAIN.ueD2DTx[7].nic.mac  receivedPacketFromLowerLayer:vector(packetBytes)  ETV
attr interpolationmode  none
attr source  receivedPacketFromLowerLayer
vector 436  CAIN.ueD2DTx[7].nic.mac  sentPacketToLowerLayer:vector(packetBytes)  ETV
attr interpolationmode  none
attr source  sentPacketToLowerLayer
vector 1549  CAIN.ueD2DTx[14].tcp  tcpRcvQueueBytes  ETV
vector 1536  CAIN.ueD2DTx[14].tcp  "advertised window"  ETV
vector 1535  CAIN.ueD2DTx[14].tcp  "receive window"  ETV
vector 1538  CAIN.ueD2DTx[14].tcp  "sent ack"  ETV
vector 653  CAIN.ueD2DTx[14].nic.pdcpRrc  receivedPacketFromUpperLayer:vector(packetBytes)  ETV
attr interpolationmode  none
attr source  receivedPacketFromUpperLayer
vector 656  CAIN.ueD2DTx[14].nic.pdcpRrc  sentPacketToLowerLayer:vector(packetBytes)  ETV
attr interpolationmode  none
attr source  sentPacketToLowerLayer
vector 657  CAIN.ueD2DTx[14].nic.mac  receivedPacketFromUpperLayer:vector(packetBytes)  ETV
attr interpolationmode  none
attr source  receivedPacketFromUpperLayer
vector 667  CAIN.ueD2DTx[14].nic.mac  CainHopMessageSent:vector  ETV
attr interpolationmode  none
attr title  "# of Sent CAIN hop message, vector"
vector 660  CAIN.ueD2DTx[14].nic.mac  sentPacketToLowerLayer:vector(packetBytes)  ETV
attr interpolationmode  none
attr source  sentPacketToLowerLayer
vector 100  CAIN.eNodeB.nic.mac  CainMessage:vector  ETV
attr interpolationmode  none
attr title  "eNB received CAIN message, vector"
vector 1301  CAIN.eNodeB1.sctp  "SendQueue of Association 5"  ETV
vector 1065  CAIN.eNodeB1.sctp  "TSN Sent 5:10.0.5.1"  ETV
vector 1072  CAIN.eNodeB1.sctp  "Outstanding Bytes 5:10.0.5.1"  ETV
vector 870  CAIN.eNodeB1.sctp  "Outstanding Bytes 4:Total"  ETV
vector 1071  CAIN.eNodeB1.sctp  "Queued Sent Bytes 5:10.0.5.1"  ETV
vector 869  CAIN.eNodeB1.sctp  "Queued Sent Bytes 4:Total"  ETV
vector 440  CAIN.ueD2DTx[7].nic.mac  DropedCainMessage:vector  ETV
attr interpolationmode  none
attr title  "Droped CAIN message due to RB not available, vector"
vector 914  CAIN.eNodeB.sctp  "TSN Received 1:10.0.5.2"  ETV
vector 890  CAIN.eNodeB.sctp  "Queued Received Bytes 1:Total"  ETV
vector 886  CAIN.eNodeB.sctp  "Advertised Receiver Window 1"  ETV
vector 895  CAIN.eNodeB.sctp  "Number of Total Gap Blocks Stored 1"  ETV
vector 896  CAIN.eNodeB.sctp  "Number of Revokable Gap Blocks Stored 1"  ETV
vector 897  CAIN.eNodeB.sctp  "Number of Non-Revokable Gap Blocks Stored 1"  ETV
vector 898  CAIN.eNodeB.sctp  "Number of Duplicate TSNs Stored 1"  ETV
vector 902  CAIN.eNodeB.sctp  "Length of SACK Sent 1"  ETV
vector 899  CAIN.eNodeB.sctp  "Number of Revokable Gap Blocks Sent 1"  ETV
vector 900  CAIN.eNodeB.sctp  "Number of Non-Revokable Gap Blocks Sent 1"  ETV
vector 901  CAIN.eNodeB.sctp  "Number of Duplicate TSNs Sent 1"  ETV
vector 906  CAIN.eNodeB.sctp  "End to End Delay of Association 1"  ETV
vector 141  CAIN.eNodeB.x2App[0].client  rcvdPk:vector(packetBytes)  ETV
attr interpolationmode  none
attr source  rcvdPk
attr title  "packets received, vector(packetBytes)"
vector 1300  CAIN.eNodeB1.sctp  "Number of Gap Blocks in Last SACK of Association 5"  ETV
vector 871  CAIN.eNodeB1.sctp  "Number of Revokable Gap Blocks in SACK 4"  ETV
vector 872  CAIN.eNodeB1.sctp  "Number of Non-Revokable Gap Blocks in SACK 4"  ETV
vector 1082  CAIN.eNodeB1.sctp  "TSN Acked CumAck 5:10.0.5.1"  ETV
vector 1048  CAIN.eNodeB1.sctp  "Number of Gap Acked Chunks in Last SACK 5:10.0.2.2"  ETV
vector 1049  CAIN.eNodeB1.sctp  "Number of Non-Revokable Gap Acked Chunks in Last SACK 5:10.0.2.2"  ETV
vector 1050  CAIN.eNodeB1.sctp  "Number of Gap Missed Chunks in Last SACK 5:10.0.2.2"  ETV
vector 1021  CAIN.eNodeB1.sctp  "Number of Gap Acked Chunks in Last SACK 5:10.0.4.1"  ETV
vector 1022  CAIN.eNodeB1.sctp  "Number of Non-Revokable Gap Acked Chunks in Last SACK 5:10.0.4.1"  ETV
vector 1023  CAIN.eNodeB1.sctp  "Number of Gap Missed Chunks in Last SACK 5:10.0.4.1"  ETV
vector 1075  CAIN.eNodeB1.sctp  "Number of Gap Acked Chunks in Last SACK 5:10.0.5.1"  ETV
vector 1076  CAIN.eNodeB1.sctp  "Number of Non-Revokable Gap Acked Chunks in Last SACK 5:10.0.5.1"  ETV
vector 1077  CAIN.eNodeB1.sctp  "Number of Gap Missed Chunks in Last SACK 5:10.0.5.1"  ETV
vector 881  CAIN.eNodeB1.sctp  "Arwnd in Last SACK 4"  ETV
vector 1084  CAIN.eNodeB1.sctp  "TSN PseudoCumAck 5:10.0.5.1"  ETV
vector 1085  CAIN.eNodeB1.sctp  "TSN RTXPseudoCumAck 5:10.0.5.1"  ETV
vector 1078  CAIN.eNodeB1.sctp  "Partial Bytes Acked 5:10.0.5.1"  ETV
vector 108  CAIN.eNodeB.nic.mac  ServedDevs:vector  ETV
attr interpolationmode  none
attr title  "# of devices served on cain forwarding, vector"
vector 1573  CAIN.ueD2DTx[7].tcp  tcpRcvQueueBytes  ETV
vector 1560  CAIN.ueD2DTx[7].tcp  "advertised window"  ETV
vector 1559  CAIN.ueD2DTx[7].tcp  "receive window"  ETV
vector 1562  CAIN.ueD2DTx[7].tcp  "sent ack"  ETV
vector 429  CAIN.ueD2DTx[7].nic.pdcpRrc  receivedPacketFromUpperLayer:vector(packetBytes)  ETV
attr interpolationmode  none
attr source  receivedPacketFromUpperLayer
vector 432  CAIN.ueD2DTx[7].nic.pdcpRrc  sentPacketToLowerLayer:vector(packetBytes)  ETV
attr interpolationmode  none
attr source  sentPacketToLowerLayer
vector 433  CAIN.ueD2DTx[7].nic.mac  receivedPacketFromUpperLayer:vector(packetBytes)  ETV
attr interpolationmode  none
attr source  receivedPacketFromUpperLayer
vector 1597  CAIN.ueD2DTx[2].tcp  tcpRcvQueueBytes  ETV
vector 1584  CAIN.ueD2DTx[2].tcp  "advertised window"  ETV
vector 1583  CAIN.ueD2DTx[2].tcp  "receive window"  ETV
vector 1586  CAIN.ueD2DTx[2].tcp  "sent ack"  ETV
vector 269  CAIN.ueD2DTx[2].nic.pdcpRrc  receivedPacketFromUpperLayer:vector(packetBytes)  ETV
attr interpolationmode  none
attr source  receivedPacketFromUpperLayer
vector 272  CAIN.ueD2DTx[2].nic.pdcpRrc  sentPacketToLowerLayer:vector(packetBytes)  ETV
attr interpolationmode  none
attr source  sentPacketToLowerLayer
vector 273  CAIN.ueD2DTx[2].nic.mac  receivedPacketFromUpperLayer:vector(packetBytes)  ETV
attr interpolationmode  none
attr source  receivedPacketFromUpperLayer
vector 282  CAIN.ueD2DTx[2].nic.mac  CainMessageSent:vector  ETV
attr interpolationmode  none
attr title  "# of Sent CAIN message, vector"
vector 276  CAIN.ueD2DTx[2].nic.mac  sentPacketToLowerLayer:vector(packetBytes)  ETV
attr interpolationmode  none
attr source  sentPacketToLowerLayer
vector 154  CAIN.eNodeB1.nic.mac  receivedPacketFromLowerLayer:vector(packetBytes)  ETV
attr interpolationmode  none
attr source  receivedPacketFromLowerLayer
vector 435  CAIN.ueD2DTx[7].nic.mac  sentPacketToUpperLayer:vector(packetBytes)  ETV
attr interpolationmode  none
attr source  sentPacketToUpperLayer
vector 248  CAIN.ueD2DTx[1].nic.mac  DropedCainMessage:vector  ETV
attr interpolationmode  none
attr title  "Droped CAIN message due to RB not available, vector"
vector 1621  CAIN.ueD2DTx[1].tcp  tcpRcvQueueBytes  ETV
vector 1608  CAIN.ueD2DTx[1].tcp  "advertised window"  ETV
vector 1607  CAIN.ueD2DTx[1].tcp  "receive window"  ETV
vector 1610  CAIN.ueD2DTx[1].tcp  "sent ack"  ETV
vector 237  CAIN.ueD2DTx[1].nic.pdcpRrc  receivedPacketFromUpperLayer:vector(packetBytes)  ETV
attr interpolationmode  none
attr source  receivedPacketFromUpperLayer
vector 240  CAIN.ueD2DTx[1].nic.pdcpRrc  sentPacketToLowerLayer:vector(packetBytes)  ETV
attr interpolationmode  none
attr source  sentPacketToLowerLayer
vector 241  CAIN.ueD2DTx[1].nic.mac  receivedPacketFromUpperLayer:vector(packetBytes)  ETV
attr interpolationmode  none
attr source  receivedPacketFromUpperLayer
vector 1645  CAIN.ueD2DTx[17].tcp  tcpRcvQueueBytes  ETV
vector 1632  CAIN.ueD2DTx[17].tcp  "advertised window"  ETV
vector 1631  CAIN.ueD2DTx[17].tcp  "receive window"  ETV
vector 1634  CAIN.ueD2DTx[17].tcp  "sent ack"  ETV
vector 749  CAIN.ueD2DTx[17].nic.pdcpRrc  receivedPacketFromUpperLayer:vector(packetBytes)  ETV
attr interpolationmode  none
attr source  receivedPacketFromUpperLayer
vector 752  CAIN.ueD2DTx[17].nic.pdcpRrc  sentPacketToLowerLayer:vector(packetBytes)  ETV
attr interpolationmode  none
attr source  sentPacketToLowerLayer
vector 753  CAIN.ueD2DTx[17].nic.mac  receivedPacketFromUpperLayer:vector(packetBytes)  ETV
attr interpolationmode  none
attr source  receivedPacketFromUpperLayer
vector 1669  CAIN.ueD2DTx[6].tcp  tcpRcvQueueBytes  ETV
vector 1656  CAIN.ueD2DTx[6].tcp  "advertised window"  ETV
vector 1655  CAIN.ueD2DTx[6].tcp  "receive window"  ETV
vector 1658  CAIN.ueD2DTx[6].tcp  "sent ack"  ETV
vector 397  CAIN.ueD2DTx[6].nic.pdcpRrc  receivedPacketFromUpperLayer:vector(packetBytes)  ETV
attr interpolationmode  none
attr source  receivedPacketFromUpperLayer
vector 400  CAIN.ueD2DTx[6].nic.pdcpRrc  sentPacketToLowerLayer:vector(packetBytes)  ETV
attr interpolationmode  none
attr source  sentPacketToLowerLayer
vector 401  CAIN.ueD2DTx[6].nic.mac  receivedPacketFromUpperLayer:vector(packetBytes)  ETV
attr interpolationmode  none
attr source  receivedPacketFromUpperLayer
vector 410  CAIN.ueD2DTx[6].nic.mac  CainMessageSent:vector  ETV
attr interpolationmode  none
attr title  "# of Sent CAIN message, vector"
vector 404  CAIN.ueD2DTx[6].nic.mac  sentPacketToLowerLayer:vector(packetBytes)  ETV
attr interpolationmode  none
attr source  sentPacketToLowerLayer
vector 1693  CAIN.ueD2DTx[9].tcp  tcpRcvQueueBytes  ETV
vector 1680  CAIN.ueD2DTx[9].tcp  "advertised window"  ETV
vector 1679  CAIN.ueD2DTx[9].tcp  "receive window"  ETV
vector 1682  CAIN.ueD2DTx[9].tcp  "sent ack"  ETV
vector 493  CAIN.ueD2DTx[9].nic.pdcpRrc  receivedPacketFromUpperLayer:vector(packetBytes)  ETV
attr interpolationmode  none
attr source  receivedPacketFromUpperLayer
vector 496  CAIN.ueD2DTx[9].nic.pdcpRrc  sentPacketToLowerLayer:vector(packetBytes)  ETV
attr interpolationmode  none
attr source  sentPacketToLowerLayer
vector 497  CAIN.ueD2DTx[9].nic.mac  receivedPacketFromUpperLayer:vector(packetBytes)  ETV
attr interpolationmode  none
attr source  receivedPacketFromUpperLayer
vector 506  CAIN.ueD2DTx[9].nic.mac  CainMessageSent:vector  ETV
attr interpolationmode  none
attr title  "# of Sent CAIN message, vector"
vector 500  CAIN.ueD2DTx[9].nic.mac  sentPacketToLowerLayer:vector(packetBytes)  ETV
attr interpolationmode  none
attr source  sentPacketToLowerLayer
vector 1717  CAIN.ueD2DTx[4].tcp  tcpRcvQueueBytes  ETV
vector 1704  CAIN.ueD2DTx[4].tcp  "advertised window"  ETV
vector 1703  CAIN.ueD2DTx[4].tcp  "receive window"  ETV
vector 1706  CAIN.ueD2DTx[4].tcp  "sent ack"  ETV
vector 333  CAIN.ueD2DTx[4].nic.pdcpRrc  receivedPacketFromUpperLayer:vector(packetBytes)  ETV
attr interpolationmode  none
attr source  receivedPacketFromUpperLayer
vector 336  CAIN.ueD2DTx[4].nic.pdcpRrc  sentPacketToLowerLayer:vector(packetBytes)  ETV
attr interpolationmode  none
attr source  sentPacketToLowerLayer
vector 337  CAIN.ueD2DTx[4].nic.mac  receivedPacketFromUpperLayer:vector(packetBytes)  ETV
attr interpolationmode  none
attr source  receivedPacketFromUpperLayer
vector 340  CAIN.ueD2DTx[4].nic.mac  sentPacketToLowerLayer:vector(packetBytes)  ETV
attr interpolationmode  none
attr source  sentPacketToLowerLayer
vector 243  CAIN.ueD2DTx[1].nic.mac  sentPacketToUpperLayer:vector(packetBytes)  ETV
attr interpolationmode  none
attr source  sentPacketToUpperLayer
vector 169  CAIN.eNodeB1.nic.mac  racpkt:vector  ETV
attr interpolationmode  none
attr title  "eNB received racpkt message, vector"
vector 170  CAIN.eNodeB1.nic.mac  racDistanceSignal:vector  ETV
attr interpolationmode  none
attr title  "Rac distance to enb, vector"
vector 171  CAIN.eNodeB1.nic.mac  racServedDevsSignal:vector  ETV
attr interpolationmode  none
attr title  "# of devices served on rac arriavall, vector"
vector 156  CAIN.eNodeB1.nic.mac  sentPacketToLowerLayer:vector(packetBytes)  ETV
attr interpolationmode  none
attr source  sentPacketToLowerLayer
vector 230  CAIN.ueD2DTx[0].nic.phy  averageCqiD2Dvect:vector  ETV
attr source  averageCqiD2Dvect
attr title  "Average Cqi reported in D2D, vector"
attr unit  cqi
vector 338  CAIN.ueD2DTx[4].nic.mac  receivedPacketFromLowerLayer:vector(packetBytes)  ETV
attr interpolationmode  none
attr source  receivedPacketFromLowerLayer
vector 1741  CAIN.ueD2DTx[0].tcp  tcpRcvQueueBytes  ETV
vector 1728  CAIN.ueD2DTx[0].tcp  "advertised window"  ETV
vector 1727  CAIN.ueD2DTx[0].tcp  "receive window"  ETV
vector 1730  CAIN.ueD2DTx[0].tcp  "sent ack"  ETV
vector 205  CAIN.ueD2DTx[0].nic.pdcpRrc  receivedPacketFromUpperLayer:vector(packetBytes)  ETV
attr interpolationmode  none
attr source  receivedPacketFromUpperLayer
vector 208  CAIN.ueD2DTx[0].nic.pdcpRrc  sentPacketToLowerLayer:vector(packetBytes)  ETV
attr interpolationmode  none
attr source  sentPacketToLowerLayer
vector 209  CAIN.ueD2DTx[0].nic.mac  receivedPacketFromUpperLayer:vector(packetBytes)  ETV
attr interpolationmode  none
attr source  receivedPacketFromUpperLayer
vector 218  CAIN.ueD2DTx[0].nic.mac  CainMessageSent:vector  ETV
attr interpolationmode  none
attr title  "# of Sent CAIN message, vector"
vector 1765  CAIN.ueD2DTx[15].tcp  tcpRcvQueueBytes  ETV
vector 1752  CAIN.ueD2DTx[15].tcp  "advertised window"  ETV
vector 1751  CAIN.ueD2DTx[15].tcp  "receive window"  ETV
vector 1754  CAIN.ueD2DTx[15].tcp  "sent ack"  ETV
vector 685  CAIN.ueD2DTx[15].nic.pdcpRrc  receivedPacketFromUpperLayer:vector(packetBytes)  ETV
attr interpolationmode  none
attr source  receivedPacketFromUpperLayer
vector 688  CAIN.ueD2DTx[15].nic.pdcpRrc  sentPacketToLowerLayer:vector(packetBytes)  ETV
attr interpolationmode  none
attr source  sentPacketToLowerLayer
vector 689  CAIN.ueD2DTx[15].nic.mac  receivedPacketFromUpperLayer:vector(packetBytes)  ETV
attr interpolationmode  none
attr source  receivedPacketFromUpperLayer
vector 692  CAIN.ueD2DTx[15].nic.mac  sentPacketToLowerLayer:vector(packetBytes)  ETV
attr interpolationmode  none
attr source  sentPacketToLowerLayer
vector 690  CAIN.ueD2DTx[15].nic.mac  receivedPacketFromLowerLayer:vector(packetBytes)  ETV
attr interpolationmode  none
attr source  receivedPacketFromLowerLayer
vector 1789  CAIN.ueD2DTx[18].tcp  tcpRcvQueueBytes  ETV
vector 1776  CAIN.ueD2DTx[18].tcp  "advertised window"  ETV
vector 1775  CAIN.ueD2DTx[18].tcp  "receive window"  ETV
vector 1778  CAIN.ueD2DTx[18].tcp  "sent ack"  ETV
vector 781  CAIN.ueD2DTx[18].nic.pdcpRrc  receivedPacketFromUpperLayer:vector(packetBytes)  ETV
attr interpolationmode  none
attr source  receivedPacketFromUpperLayer
vector 784  CAIN.ueD2DTx[18].nic.pdcpRrc  sentPacketToLowerLayer:vector(packetBytes)  ETV
attr interpolationmode  none
attr source  sentPacketToLowerLayer
vector 785  CAIN.ueD2DTx[18].nic.mac  receivedPacketFromUpperLayer:vector(packetBytes)  ETV
attr interpolationmode  none
attr source  receivedPacketFromUpperLayer
vector 594  CAIN.ueD2DTx[12].nic.mac  receivedPacketFromLowerLayer:vector(packetBytes)  ETV
attr interpolationmode  none
attr source  receivedPacketFromLowerLayer
vector 173  CAIN.eNodeB1.nic.phy  averageCqiUlvect:vector  ETV
attr source  averageCqiUlvect
attr title  "Average Cqi reported in UL, vector"
attr unit  cqi
8	0	0	0
9	0	0	0
24	0	0	0
25	0	0	0
35	0	0	0
36	0	0	0
56	0	0	0
57	0	0	0
67	0	0	0
68	0	0	0
78	0	0	0
79	0	0	0
91	2096	0.037	44
91	2463	0.043	44
91	4308	0.073	44
92	2091	0.037	45
92	2458	0.043	45
92	4303	0.073	45
93	2091	0.037	44
93	2458	0.043	44
93	4303	0.073	44
94	2096	0.037	45
94	2463	0.043	45
94	4308	0.073	45
95	2099	0.037	45
95	2149	0.038	47
95	2466	0.043	45
95	2508	0.044	47
95	4311	0.073	45
95	4357	0.074	47
96	378	0.002	0
96	381	0.002	0
96	384	0.002	0
96	387	0.002	0
96	390	0.002	0
96	393	0.002	0
96	396	0.002	0
96	399	0.002	0
96	402	0.002	0
96	405	0.002	0
96	408	0.002	0
96	411	0.002	0
96	414	0.002	0
96	417	0.002	0
96	420	0.002	0
96	423	0.002	0
96	426	0.002	0
96	429	0.002	0
96	432	0.002	0
96	435	0.002	0
96	723	0.008	0
96	726	0.008	0
96	729	0.008	0
96	732	0.008	0
96	735	0.008	0
96	738	0.008	0
96	741	0.008	0
96	744	0.008	0
96	747	0.008	0
96	750	0.008	0
96	967	0.014	0
96	970	0.014	0
96	973	0.014	0
96	976	0.014	0
96	979	0.014	0
96	982	0.014	0
96	985	0.014	0
96	988	0.014	0
96	991	0.014	0
96	994	0.014	0
96	1220	0.02	0
96	1223	0.02	0
96	1226	0.02	0
96	1229	0.02	0
96	1232	0.02	0
96	1235	0.02	0
96	1238	0.02	0
96	1241	0.02	0
96	1244	0.02	0
96	1247	0.02	0
96	1337	0.023	0
96	1384	0.024	0
96	1500	0.026	0
96	1503	0.026	0
96	1506	0.026	0
96	1509	0.026	0
96	1512	0.026	0
96	1515	0.026	0
96	1518	0.026	0
96	1521	0.026	0
96	1524	0.026	0
96	1527	0.026	0
96	1596	0.028	0
96	1601	0.028	0
96	1637	0.029	0
96	1640	0.029	0
96	1691	0.03	0
96	1813	0.032	0
96	1816	0.032	0
96	1819	0.032	0
96	1822	0.032	0
96	1825	0.032	0
96	1828	0.032	0
96	1831	0.032	0
96	1834	0.032	0
96	1837	0.032	0
96	1840	0.032	0
96	1900	0.033	0
96	1905	0.033	0
96	1936	0.034	0
96	1938	0.034	0
96	1940	0.034	0
96	1970	0.035	0
96	2031	0.036	0
96	2184	0.038	0
96	2187	0.038	0
96	2190	0.038	0
96	2193	0.038	0
96	2196	0.038	0
96	2199	0.038	0
96	2202	0.038	0
96	2205	0.038	0
96	2208	0.038	0
96	2211	0.038	0
96	2223	0.038	0
96	2264	0.039	0
96	2266	0.039	0
96	2296	0.04	0
96	2334	0.041	0
96	2337	0.041	0
96	2497	0.043	0
96	2502	0.043	0
96	2535	0.044	0
96	2538	0.044	0
96	2541	0.044	0
96	2544	0.044	0
96	2547	0.044	0
96	2550	0.044	0
96	2553	0.044	0
96	2556	0.044	0
96	2559	0.044	0
96	2562	0.044	0
96	2573	0.044	0
96	2641	0.046	0
96	2644	0.046	0
96	2749	0.048	0
96	2826	0.049	0
96	2837	0.049	0
96	2867	0.05	0
96	2870	0.05	0
96	2873	0.05	0
96	2876	0.05	0
96	2879	0.05	0
96	2882	0.05	0
96	2885	0.05	0
96	2888	0.05	0
96	2891	0.05	0
96	2894	0.05	0
96	2903	0.05	0
96	2936	0.051	0
96	2939	0.051	0
96	3011	0.053	0
96	3085	0.054	0
96	3177	0.055	0
96	3216	0.056	0
96	3219	0.056	0
96	3222	0.056	0
96	3225	0.056	0
96	3228	0.056	0
96	3231	0.056	0
96	3234	0.056	0
96	3237	0.056	0
96	3240	0.056	0
96	3243	0.056	0
96	3249	0.056	0
96	3252	0.056	0
96	3255	0.056	0
96	3258	0.056	0
96	3446	0.058	0
96	3449	0.058	0
96	3486	0.059	0
96	3489	0.059	0
96	3538	0.06	0
96	3607	0.061	0
96	3610	0.061	0
96	3637	0.062	0
96	3640	0.062	0
96	3643	0.062	0
96	3652	0.062	0
96	3655	0.062	0
96	3658	0.062	0
96	3661	0.062	0
96	3664	0.062	0
96	3667	0.062	0
96	3684	0.062	0
96	3768	0.063	0
96	3771	0.063	0
96	3773	0.063	0
96	3802	0.064	0
96	3830	0.065	0
96	3887	0.066	0
96	3890	0.066	0
96	3989	0.068	0
96	3992	0.068	0
96	3995	0.068	0
96	4004	0.068	0
96	4007	0.068	0
96	4010	0.068	0
96	4013	0.068	0
96	4016	0.068	0
96	4019	0.068	0
96	4036	0.068	0
96	4043	0.068	0
96	4046	0.068	0
96	4049	0.068	0
96	4051	0.068	0
96	4134	0.069	0
96	4181	0.07	0
96	4213	0.071	0
96	4216	0.071	0
96	4269	0.072	0
96	4271	0.072	0
96	4340	0.073	0
96	4343	0.073	0
96	4349	0.073	0
96	4351	0.073	0
96	4386	0.074	0
96	4389	0.074	0
96	4392	0.074	0
96	4401	0.074	0
96	4404	0.074	0
96	4407	0.074	0
96	4410	0.074	0
96	4413	0.074	0
96	4416	0.074	0
96	4433	0.074	0
96	4443	0.074	0
96	4531	0.075	0
96	4579	0.076	0
96	4582	0.076	0
96	4621	0.077	0
96	4623	0.077	0
96	4626	0.077	0
96	4688	0.078	0
96	4699	0.078	0
96	4701	0.078	0
96	4749	0.079	0
96	4754	0.079	0
96	4756	0.079	0
96	4786	0.08	0
96	4789	0.08	0
96	4792	0.08	0
96	4801	0.08	0
96	4804	0.08	0
96	4807	0.08	0
96	4810	0.08	0
96	4813	0.08	0
96	4816	0.08	0
96	4833	0.08	0
96	4842	0.08	0
96	4926	0.081	0
96	4929	0.081	0
96	4962	0.082	0
96	4965	0.082	0
96	5007	0.083	0
96	5016	0.083	0
96	5018	0.083	0
96	5081	0.084	0
96	5083	0.084	0
96	5140	0.085	0
96	5143	0.085	0
96	5170	0.086	0
96	5173	0.086	0
96	5176	0.086	0
96	5185	0.086	0
96	5188	0.086	0
96	5191	0.086	0
96	5194	0.086	0
96	5197	0.086	0
96	5200	0.086	0
96	5217	0.086	0
96	5226	0.086	0
96	5229	0.086	0
96	5312	0.087	0
96	5315	0.087	0
96	5324	0.087	0
96	5351	0.088	0
96	5360	0.088	0
96	5362	0.088	0
96	5396	0.089	0
96	5398	0.089	0
96	5452	0.09	0
96	5455	0.09	0
96	5508	0.091	0
96	5511	0.091	0
96	5541	0.092	0
96	5544	0.092	0
96	5547	0.092	0
96	5556	0.092	0
96	5559	0.092	0
96	5562	0.092	0
96	5565	0.092	0
96	5568	0.092	0
96	5571	0.092	0
96	5588	0.092	0
96	5594	0.092	0
96	5597	0.092	0
96	5606	0.092	0
96	5673	0.093	0
96	5682	0.093	0
96	5684	0.093	0
96	5718	0.094	0
96	5720	0.094	0
96	5754	0.095	0
96	5757	0.095	0
96	5810	0.096	0
96	5813	0.096	0
96	5866	0.097	0
96	5869	0.097	0
96	5878	0.097	0
96	5905	0.098	0
96	5908	0.098	0
96	5911	0.098	0
96	5920	0.098	0
96	5923	0.098	0
96	5926	0.098	0
96	5929	0.098	0
96	5932	0.098	0
96	5935	0.098	0
96	5952	0.098	0
96	5955	0.098	0
96	5964	0.098	0
96	5966	0.098	0
96	6040	0.099	0
96	6042	0.099	0
96	6076	0.1	0
96	6079	0.1	0
96	6112	0.101	0
96	6115	0.101	0
96	6168	0.102	0
96	6171	0.102	0
96	6180	0.102	0
96	6227	0.103	0
96	6236	0.103	0
96	6238	0.103	0
96	6266	0.104	0
96	6269	0.104	0
96	6272	0.104	0
96	6281	0.104	0
96	6284	0.104	0
96	6287	0.104	0
96	6290	0.104	0
96	6293	0.104	0
96	6296	0.104	0
96	6313	0.104	0
96	6322	0.104	0
96	6324	0.104	0
96	6398	0.105	0
96	6401	0.105	0
96	6434	0.106	0
96	6437	0.106	0
96	6470	0.107	0
96	6473	0.107	0
96	6482	0.107	0
96	6529	0.108	0
96	6538	0.108	0
96	6540	0.108	0
96	6594	0.109	0
96	6596	0.109	0
96	6624	0.11	0
96	6627	0.11	0
96	6630	0.11	0
96	6639	0.11	0
96	6642	0.11	0
96	6645	0.11	0
96	6648	0.11	0
96	6651	0.11	0
96	6654	0.11	0
96	6671	0.11	0
96	6680	0.11	0
96	6683	0.11	0
96	6716	0.111	0
96	6719	0.111	0
96	6752	0.112	0
96	6755	0.112	0
96	6764	0.112	0
96	6791	0.113	0
96	6800	0.113	0
96	6802	0.113	0
96	6856	0.114	0
96	6858	0.114	0
96	6912	0.115	0
96	6915	0.115	0
96	6942	0.116	0
96	6945	0.116	0
96	6948	0.116	0
96	6957	0.116	0
96	6960	0.116	0
96	6963	0.116	0
96	6966	0.116	0
96	6969	0.116	0
96	6972	0.116	0
96	6989	0.116	0
96	6998	0.116	0
96	7001	0.116	0
96	7034	0.117	0
96	7037	0.117	0
96	7046	0.117	0
96	7073	0.118	0
96	7082	0.118	0
96	7084	0.118	0
96	7118	0.119	0
96	7120	0.119	0
96	7174	0.12	0
96	7177	0.12	0
96	7230	0.121	0
96	7233	0.121	0
96	7263	0.122	0
96	7266	0.122	0
96	7269	0.122	0
96	7278	0.122	0
96	7281	0.122	0
96	7284	0.122	0
96	7287	0.122	0
96	7290	0.122	0
96	7293	0.122	0
96	7310	0.122	0
96	7316	0.122	0
96	7319	0.122	0
96	7328	0.122	0
96	7355	0.123	0
96	7364	0.123	0
96	7366	0.123	0
96	7400	0.124	0
96	7402	0.124	0
96	7436	0.125	0
96	7439	0.125	0
96	7492	0.126	0
96	7495	0.126	0
96	7548	0.127	0
96	7551	0.127	0
96	7560	0.127	0
96	7587	0.128	0
96	7590	0.128	0
96	7593	0.128	0
96	7602	0.128	0
96	7605	0.128	0
96	7608	0.128	0
96	7611	0.128	0
96	7614	0.128	0
96	7617	0.128	0
96	7634	0.128	0
96	7637	0.128	0
96	7646	0.128	0
96	7648	0.128	0
96	7682	0.129	0
96	7684	0.129	0
96	7718	0.13	0
96	7721	0.13	0
96	7754	0.131	0
96	7757	0.131	0
96	7810	0.132	0
96	7813	0.132	0
96	7822	0.132	0
96	7869	0.133	0
96	7878	0.133	0
96	7880	0.133	0
96	7908	0.134	0
96	7911	0.134	0
96	7914	0.134	0
96	7923	0.134	0
96	7926	0.134	0
96	7929	0.134	0
96	7932	0.134	0
96	7935	0.134	0
96	7938	0.134	0
96	7955	0.134	0
96	7964	0.134	0
96	7966	0.134	0
96	8000	0.135	0
96	8003	0.135	0
96	8036	0.136	0
96	8039	0.136	0
96	8072	0.137	0
96	8075	0.137	0
96	8084	0.137	0
96	8131	0.138	0
96	8140	0.138	0
96	8142	0.138	0
96	8196	0.139	0
96	8198	0.139	0
96	8226	0.14	0
96	8229	0.14	0
96	8232	0.14	0
96	8241	0.14	0
96	8244	0.14	0
96	8247	0.14	0
96	8250	0.14	0
96	8253	0.14	0
96	8256	0.14	0
96	8273	0.14	0
96	8282	0.14	0
96	8285	0.14	0
96	8318	0.141	0
96	8321	0.141	0
96	8354	0.142	0
96	8357	0.142	0
96	8366	0.142	0
96	8393	0.143	0
96	8402	0.143	0
96	8404	0.143	0
96	8458	0.144	0
96	8460	0.144	0
96	8514	0.145	0
96	8517	0.145	0
96	8544	0.146	0
96	8547	0.146	0
96	8550	0.146	0
96	8559	0.146	0
96	8562	0.146	0
96	8565	0.146	0
96	8568	0.146	0
96	8571	0.146	0
96	8574	0.146	0
96	8591	0.146	0
96	8600	0.146	0
96	8603	0.146	0
96	8636	0.147	0
96	8639	0.147	0
96	8648	0.147	0
96	8675	0.148	0
96	8684	0.148	0
96	8686	0.148	0
96	8720	0.149	0
96	8722	0.149	0
96	8776	0.15	0
96	8779	0.15	0
96	8832	0.151	0
96	8835	0.151	0
96	8865	0.152	0
96	8868	0.152	0
96	8871	0.152	0
96	8880	0.152	0
96	8883	0.152	0
96	8886	0.152	0
96	8889	0.152	0
96	8892	0.152	0
96	8895	0.152	0
96	8912	0.152	0
96	8918	0.152	0
96	8921	0.152	0
96	8930	0.152	0
96	8957	0.153	0
96	8966	0.153	0
96	8968	0.153	0
96	9002	0.154	0
96	9004	0.154	0
96	9038	0.155	0
96	9041	0.155	0
96	9094	0.156	0
96	9097	0.156	0
96	9150	0.157	0
96	9153	0.157	0
96	9162	0.157	0
96	9189	0.158	0
96	9192	0.158	0
96	9195	0.158	0
96	9204	0.158	0
96	9207	0.158	0
96	9210	0.158	0
96	9213	0.158	0
96	9216	0.158	0
96	9219	0.158	0
96	9236	0.158	0
96	9239	0.158	0
96	9248	0.158	0
96	9250	0.158	0
96	9284	0.159	0
96	9286	0.159	0
96	9320	0.16	0
96	9323	0.16	0
96	9356	0.161	0
96	9359	0.161	0
96	9412	0.162	0
96	9415	0.162	0
96	9424	0.162	0
96	9471	0.163	0
96	9480	0.163	0
96	9482	0.163	0
96	9510	0.164	0
96	9513	0.164	0
96	9516	0.164	0
96	9525	0.164	0
96	9528	0.164	0
96	9531	0.164	0
96	9534	0.164	0
96	9537	0.164	0
96	9540	0.164	0
96	9557	0.164	0
96	9566	0.164	0
96	9568	0.164	0
96	9602	0.165	0
96	9605	0.165	0
96	9638	0.166	0
96	9641	0.166	0
96	9674	0.167	0
96	9677	0.167	0
96	9686	0.167	0
96	9733	0.168	0
96	9742	0.168	0
96	9744	0.168	0
96	9798	0.169	0
96	9800	0.169	0
96	9828	0.17	0
96	9831	0.17	0
96	9834	0.17	0
96	9843	0.17	0
96	9846	0.17	0
96	9849	0.17	0
96	9852	0.17	0
96	9855	0.17	0
96	9858	0.17	0
96	9875	0.17	0
96	9884	0.17	0
96	9887	0.17	0
96	9920	0.171	0
96	9923	0.171	0
96	9956	0.172	0
96	9959	0.172	0
96	9968	0.172	0
96	9995	0.173	0
96	10004	0.173	0
96	10006	0.173	0
96	10060	0.174	0
96	10062	0.174	0
96	10116	0.175	0
96	10119	0.175	0
96	10146	0.176	0
96	10149	0.176	0
96	10152	0.176	0
96	10161	0.176	0
96	10164	0.176	0
96	10167	0.176	0
96	10170	0.176	0
96	10173	0.176	0
96	10176	0.176	0
96	10193	0.176	0
96	10202	0.176	0
96	10205	0.176	0
96	10238	0.177	0
96	10241	0.177	0
96	10250	0.177	0
96	10277	0.178	0
96	10286	0.178	0
96	10288	0.178	0
96	10322	0.179	0
96	10324	0.179	0
96	10378	0.18	0
96	10381	0.18	0
96	10434	0.181	0
96	10437	0.181	0
96	10467	0.182	0
96	10470	0.182	0
96	10473	0.182	0
96	10482	0.182	0
96	10485	0.182	0
96	10488	0.182	0
96	10491	0.182	0
96	10494	0.182	0
96	10497	0.182	0
96	10514	0.182	0
96	10520	0.182	0
96	10523	0.182	0
96	10532	0.182	0
96	10559	0.183	0
96	10568	0.183	0
96	10570	0.183	0
96	10604	0.184	0
96	10606	0.184	0
96	10640	0.185	0
96	10643	0.185	0
96	10696	0.186	0
96	10699	0.186	0
96	10752	0.187	0
96	10755	0.187	0
96	10764	0.187	0
96	10791	0.188	0
96	10794	0.188	0
96	10797	0.188	0
96	10806	0.188	0
96	10809	0.188	0
96	10812	0.188	0
96	10815	0.188	0
96	10818	0.188	0
96	10821	0.188	0
96	10838	0.188	0
96	10841	0.188	0
96	10850	0.188	0
96	10852	0.188	0
96	10886	0.189	0
96	10888	0.189	0
96	10922	0.19	0
96	10925	0.19	0
96	10958	0.191	0
96	10961	0.191	0
96	11014	0.192	0
96	11017	0.192	0
96	11026	0.192	0
96	11073	0.193	0
96	11082	0.193	0
96	11084	0.193	0
96	11112	0.194	0
96	11115	0.194	0
96	11118	0.194	0
96	11127	0.194	0
96	11130	0.194	0
96	11133	0.194	0
96	11136	0.194	0
96	11139	0.194	0
96	11142	0.194	0
96	11159	0.194	0
96	11168	0.194	0
96	11170	0.194	0
96	11204	0.195	0
96	11207	0.195	0
96	11240	0.196	0
96	11243	0.196	0
96	11276	0.197	0
96	11279	0.197	0
96	11288	0.197	0
96	11335	0.198	0
96	11344	0.198	0
96	11346	0.198	0
96	11400	0.199	0
96	11402	0.199	0
96	11430	0.2	0
96	11433	0.2	0
96	11436	0.2	0
96	11445	0.2	0
96	11448	0.2	0
96	11451	0.2	0
96	11454	0.2	0
96	11457	0.2	0
96	11460	0.2	0
96	11477	0.2	0
96	11486	0.2	0
96	11489	0.2	0
96	11522	0.201	0
96	11525	0.201	0
96	11558	0.202	0
96	11561	0.202	0
96	11570	0.202	0
96	11597	0.203	0
96	11606	0.203	0
96	11608	0.203	0
96	11662	0.204	0
96	11664	0.204	0
96	11718	0.205	0
96	11721	0.205	0
96	11748	0.206	0
96	11751	0.206	0
96	11754	0.206	0
96	11763	0.206	0
96	11766	0.206	0
96	11769	0.206	0
96	11772	0.206	0
96	11775	0.206	0
96	11778	0.206	0
96	11795	0.206	0
96	11804	0.206	0
96	11807	0.206	0
96	11840	0.207	0
96	11843	0.207	0
96	11852	0.207	0
96	12294	0.208	0
96	12303	0.208	0
96	12305	0.208	0
96	12339	0.209	0
96	12341	0.209	0
96	12395	0.21	0
96	12398	0.21	0
96	12451	0.211	0
96	12454	0.211	0
96	12484	0.212	0
96	12487	0.212	0
96	12490	0.212	0
96	12499	0.212	0
96	12502	0.212	0
96	12505	0.212	0
96	12508	0.212	0
96	12511	0.212	0
96	12514	0.212	0
96	12531	0.212	0
96	12537	0.212	0
96	12540	0.212	0
96	12549	0.212	0
96	12576	0.213	0
96	12585	0.213	0
96	12587	0.213	0
96	12621	0.214	0
96	12623	0.214	0
96	12657	0.215	0
96	12660	0.215	0
96	12713	0.216	0
96	12716	0.216	0
96	12769	0.217	0
96	12772	0.217	0
96	12781	0.217	0
96	12808	0.218	0
96	12811	0.218	0
96	12814	0.218	0
96	12823	0.218	0
96	12826	0.218	0
96	12829	0.218	0
96	12832	0.218	0
96	12835	0.218	0
96	12838	0.218	0
96	12855	0.218	0
96	12858	0.218	0
96	12867	0.218	0
96	12869	0.218	0
96	12903	0.219	0
96	12905	0.219	0
96	12939	0.22	0
96	12942	0.22	0
96	12975	0.221	0
96	12978	0.221	0
96	13031	0.222	0
96	13034	0.222	0
96	13043	0.222	0
96	13090	0.223	0
96	13099	0.223	0
96	13101	0.223	0
96	13129	0.224	0
96	13132	0.224	0
96	13135	0.224	0
96	13144	0.224	0
96	13147	0.224	0
96	13150	0.224	0
96	13153	0.224	0
96	13156	0.224	0
96	13159	0.224	0
96	13176	0.224	0
96	13185	0.224	0
96	13187	0.224	0
96	13221	0.225	0
96	13224	0.225	0
96	13257	0.226	0
96	13260	0.226	0
96	13293	0.227	0
96	13296	0.227	0
96	13305	0.227	0
96	13352	0.228	0
96	13361	0.228	0
96	13363	0.228	0
96	13417	0.229	0
96	13419	0.229	0
96	13447	0.23	0
96	13450	0.23	0
96	13453	0.23	0
96	13462	0.23	0
96	13465	0.23	0
96	13468	0.23	0
96	13471	0.23	0
96	13474	0.23	0
96	13477	0.23	0
96	13494	0.23	0
96	13503	0.23	0
96	13506	0.23	0
96	13539	0.231	0
96	13542	0.231	0
96	13575	0.232	0
96	13578	0.232	0
96	13587	0.232	0
96	13614	0.233	0
96	13623	0.233	0
96	13625	0.233	0
96	13679	0.234	0
96	13681	0.234	0
96	13735	0.235	0
96	13738	0.235	0
96	13765	0.236	0
96	13768	0.236	0
96	13771	0.236	0
96	13780	0.236	0
96	13783	0.236	0
96	13786	0.236	0
96	13789	0.236	0
96	13792	0.236	0
96	13795	0.236	0
96	13812	0.236	0
96	13821	0.236	0
96	13824	0.236	0
96	13857	0.237	0
96	13860	0.237	0
96	13869	0.237	0
96	13896	0.238	0
96	13905	0.238	0
96	13907	0.238	0
96	13941	0.239	0
96	13943	0.239	0
96	13997	0.24	0
96	14000	0.24	0
96	14053	0.241	0
96	14056	0.241	0
96	14086	0.242	0
96	14089	0.242	0
96	14092	0.242	0
96	14101	0.242	0
96	14104	0.242	0
96	14107	0.242	0
96	14110	0.242	0
96	14113	0.242	0
96	14116	0.242	0
96	14133	0.242	0
96	14139	0.242	0
96	14142	0.242	0
96	14151	0.242	0
96	14178	0.243	0
96	14187	0.243	0
96	14189	0.243	0
96	14223	0.244	0
96	14225	0.244	0
96	14259	0.245	0
96	14262	0.245	0
96	14315	0.246	0
96	14318	0.246	0
96	14371	0.247	0
96	14374	0.247	0
96	14383	0.247	0
96	14410	0.248	0
96	14413	0.248	0
96	14416	0.248	0
96	14425	0.248	0
96	14428	0.248	0
96	14431	0.248	0
96	14434	0.248	0
96	14437	0.248	0
96	14440	0.248	0
96	14457	0.248	0
96	14460	0.248	0
96	14469	0.248	0
96	14471	0.248	0
96	14505	0.249	0
96	14507	0.249	0
96	14541	0.25	0
96	14544	0.25	0
96	14577	0.251	0
96	14580	0.251	0
96	14633	0.252	0
96	14636	0.252	0
96	14645	0.252	0
96	14692	0.253	0
96	14701	0.253	0
96	14703	0.253	0
96	14731	0.254	0
96	14734	0.254	0
96	14737	0.254	0
96	14746	0.254	0
96	14749	0.254	0
96	14752	0.254	0
96	14755	0.254	0
96	14758	0.254	0
96	14761	0.254	0
96	14778	0.254	0
96	14787	0.254	0
96	14789	0.254	0
96	14823	0.255	0
96	14826	0.255	0
96	14859	0.256	0
96	14862	0.256	0
96	14895	0.257	0
96	14898	0.257	0
96	14907	0.257	0
96	15369	0.258	0
96	15378	0.258	0
96	15380	0.258	0
96	15434	0.259	0
96	15436	0.259	0
96	15464	0.26	0
96	15467	0.26	0
96	15470	0.26	0
96	15479	0.26	0
96	15482	0.26	0
96	15485	0.26	0
96	15488	0.26	0
96	15491	0.26	0
96	15494	0.26	0
96	15511	0.26	0
96	15520	0.26	0
96	15523	0.26	0
96	15556	0.261	0
96	15559	0.261	0
96	15592	0.262	0
96	15595	0.262	0
96	15604	0.262	0
96	15631	0.263	0
96	15640	0.263	0
96	15642	0.263	0
96	15696	0.264	0
96	15698	0.264	0
96	15752	0.265	0
96	15755	0.265	0
96	15782	0.266	0
96	15785	0.266	0
96	15788	0.266	0
96	15797	0.266	0
96	15800	0.266	0
96	15803	0.266	0
96	15806	0.266	0
96	15809	0.266	0
96	15812	0.266	0
96	15829	0.266	0
96	15838	0.266	0
96	15841	0.266	0
96	15874	0.267	0
96	15877	0.267	0
96	15886	0.267	0
96	15913	0.268	0
96	15922	0.268	0
96	15924	0.268	0
96	15958	0.269	0
96	15960	0.269	0
96	16014	0.27	0
96	16017	0.27	0
96	16070	0.271	0
96	16073	0.271	0
96	16103	0.272	0
96	16106	0.272	0
96	16109	0.272	0
96	16118	0.272	0
96	16121	0.272	0
96	16124	0.272	0
96	16127	0.272	0
96	16130	0.272	0
96	16133	0.272	0
96	16150	0.272	0
96	16156	0.272	0
96	16159	0.272	0
96	16168	0.272	0
96	16195	0.273	0
96	16204	0.273	0
96	16206	0.273	0
96	16240	0.274	0
96	16242	0.274	0
96	16276	0.275	0
96	16279	0.275	0
96	16332	0.276	0
96	16335	0.276	0
96	16388	0.277	0
96	16391	0.277	0
96	16400	0.277	0
96	16427	0.278	0
96	16430	0.278	0
96	16433	0.278	0
96	16442	0.278	0
96	16445	0.278	0
96	16448	0.278	0
96	16451	0.278	0
96	16454	0.278	0
96	16457	0.278	0
96	16474	0.278	0
96	16477	0.278	0
96	16486	0.278	0
96	16488	0.278	0
96	16522	0.279	0
96	16524	0.279	0
96	16558	0.28	0
96	16561	0.28	0
96	16594	0.281	0
96	16597	0.281	0
96	16650	0.282	0
96	16653	0.282	0
96	16662	0.282	0
96	16709	0.283	0
96	16718	0.283	0
96	16720	0.283	0
96	16748	0.284	0
96	16751	0.284	0
96	16754	0.284	0
96	16763	0.284	0
96	16766	0.284	0
96	16769	0.284	0
96	16772	0.284	0
96	16775	0.284	0
96	16778	0.284	0
96	16795	0.284	0
96	16804	0.284	0
96	16806	0.284	0
96	16840	0.285	0
96	16843	0.285	0
96	16876	0.286	0
96	16879	0.286	0
96	16912	0.287	0
96	16915	0.287	0
96	16924	0.287	0
96	16971	0.288	0
96	16980	0.288	0
96	16982	0.288	0
96	17036	0.289	0
96	17038	0.289	0
96	17066	0.29	0
96	17069	0.29	0
96	17072	0.29	0
96	17081	0.29	0
96	17084	0.29	0
96	17087	0.29	0
96	17090	0.29	0
96	17093	0.29	0
96	17096	0.29	0
96	17113	0.29	0
96	17122	0.29	0
96	17125	0.29	0
96	17158	0.291	0
96	17161	0.291	0
96	17194	0.292	0
96	17197	0.292	0
96	17206	0.292	0
96	17233	0.293	0
96	17242	0.293	0
96	17244	0.293	0
96	17298	0.294	0
96	17300	0.294	0
96	17354	0.295	0
96	17357	0.295	0
96	17384	0.296	0
96	17387	0.296	0
96	17390	0.296	0
96	17399	0.296	0
96	17402	0.296	0
96	17405	0.296	0
96	17408	0.296	0
96	17411	0.296	0
96	17414	0.296	0
96	17431	0.296	0
96	17440	0.296	0
96	17443	0.296	0
96	17476	0.297	0
96	17479	0.297	0
96	17488	0.297	0
96	17515	0.298	0
96	17524	0.298	0
96	17526	0.298	0
96	17560	0.299	0
96	17562	0.299	0
96	17616	0.3	0
96	17619	0.3	0
96	17672	0.301	0
96	17675	0.301	0
96	17705	0.302	0
96	17708	0.302	0
96	17711	0.302	0
96	17720	0.302	0
96	17723	0.302	0
96	17726	0.302	0
96	17729	0.302	0
96	17732	0.302	0
96	17735	0.302	0
96	17752	0.302	0
96	17758	0.302	0
96	17761	0.302	0
96	17770	0.302	0
96	17797	0.303	0
96	17806	0.303	0
96	17808	0.303	0
96	17842	0.304	0
96	17844	0.304	0
96	17878	0.305	0
96	17881	0.305	0
96	17934	0.306	0
96	17937	0.306	0
96	17990	0.307	0
96	17993	0.307	0
96	18002	0.307	0
96	18029	0.308	0
96	18032	0.308	0
96	18035	0.308	0
96	18044	0.308	0
96	18047	0.308	0
96	18050	0.308	0
96	18053	0.308	0
96	18056	0.308	0
96	18059	0.308	0
96	18076	0.308	0
96	18079	0.308	0
96	18088	0.308	0
96	18090	0.308	0
96	18124	0.309	0
96	18126	0.309	0
96	18160	0.31	0
96	18163	0.31	0
96	18196	0.311	0
96	18199	0.311	0
96	18252	0.312	0
96	18255	0.312	0
96	18264	0.312	0
96	18311	0.313	0
96	18320	0.313	0
96	18322	0.313	0
96	18350	0.314	0
96	18353	0.314	0
96	18356	0.314	0
96	18365	0.314	0
96	18368	0.314	0
96	18371	0.314	0
96	18374	0.314	0
96	18377	0.314	0
96	18380	0.314	0
96	18397	0.314	0
96	18406	0.314	0
96	18408	0.314	0
96	18442	0.315	0
96	18445	0.315	0
96	18478	0.316	0
96	18481	0.316	0
96	18514	0.317	0
96	18517	0.317	0
96	18526	0.317	0
96	18573	0.318	0
96	18582	0.318	0
96	18584	0.318	0
96	18638	0.319	0
96	18640	0.319	0
96	18668	0.32	0
96	18671	0.32	0
96	18674	0.32	0
96	18683	0.32	0
96	18686	0.32	0
96	18689	0.32	0
96	18692	0.32	0
96	18695	0.32	0
96	18698	0.32	0
96	18715	0.32	0
96	18724	0.32	0
96	18727	0.32	0
96	18760	0.321	0
96	18763	0.321	0
96	18796	0.322	0
96	18799	0.322	0
96	18808	0.322	0
96	18835	0.323	0
96	18844	0.323	0
96	18846	0.323	0
96	18900	0.324	0
96	18902	0.324	0
96	18956	0.325	0
96	18959	0.325	0
96	18986	0.326	0
96	18989	0.326	0
96	18992	0.326	0
96	19001	0.326	0
96	19004	0.326	0
96	19007	0.326	0
96	19010	0.326	0
96	19013	0.326	0
96	19016	0.326	0
96	19033	0.326	0
96	19042	0.326	0
96	19045	0.326	0
96	19078	0.327	0
96	19081	0.327	0
96	19090	0.327	0
96	19117	0.328	0
96	19126	0.328	0
96	19128	0.328	0
96	19162	0.329	0
96	19164	0.329	0
96	19218	0.33	0
96	19221	0.33	0
96	19274	0.331	0
96	19277	0.331	0
96	19307	0.332	0
96	19310	0.332	0
96	19313	0.332	0
96	19322	0.332	0
96	19325	0.332	0
96	19328	0.332	0
96	19331	0.332	0
96	19334	0.332	0
96	19337	0.332	0
96	19354	0.332	0
96	19360	0.332	0
96	19363	0.332	0
96	19372	0.332	0
96	19399	0.333	0
96	19408	0.333	0
96	19410	0.333	0
96	19444	0.334	0
96	19446	0.334	0
96	19480	0.335	0
96	19483	0.335	0
96	19536	0.336	0
96	19539	0.336	0
96	19592	0.337	0
96	19595	0.337	0
96	19604	0.337	0
96	19631	0.338	0
96	19634	0.338	0
96	19637	0.338	0
96	19646	0.338	0
96	19649	0.338	0
96	19652	0.338	0
96	19655	0.338	0
96	19658	0.338	0
96	19661	0.338	0
96	19678	0.338	0
96	19681	0.338	0
96	19690	0.338	0
96	19692	0.338	0
96	19726	0.339	0
96	19728	0.339	0
96	19762	0.34	0
96	19765	0.34	0
96	19798	0.341	0
96	19801	0.341	0
96	19854	0.342	0
96	19857	0.342	0
96	19866	0.342	0
96	19913	0.343	0
96	19922	0.343	0
96	19924	0.343	0
96	19952	0.344	0
96	19955	0.344	0
96	19958	0.344	0
96	19967	0.344	0
96	19970	0.344	0
96	19973	0.344	0
96	19976	0.344	0
96	19979	0.344	0
96	19982	0.344	0
96	19999	0.344	0
96	20008	0.344	0
96	20010	0.344	0
96	20044	0.345	0
96	20047	0.345	0
96	20080	0.346	0
96	20083	0.346	0
96	20116	0.347	0
96	20119	0.347	0
96	20128	0.347	0
96	20175	0.348	0
96	20184	0.348	0
96	20186	0.348	0
96	20240	0.349	0
96	20242	0.349	0
96	20270	0.35	0
96	20273	0.35	0
96	20276	0.35	0
96	20285	0.35	0
96	20288	0.35	0
96	20291	0.35	0
96	20294	0.35	0
96	20297	0.35	0
96	20300	0.35	0
96	20317	0.35	0
96	20326	0.35	0
96	20329	0.35	0
96	20362	0.351	0
96	20365	0.351	0
96	20398	0.352	0
96	20401	0.352	0
96	20410	0.352	0
96	20437	0.353	0
96	20446	0.353	0
96	20448	0.353	0
96	20502	0.354	0
96	20504	0.354	0
96	20558	0.355	0
96	20561	0.355	0
96	20588	0.356	0
96	20591	0.356	0
96	20594	0.356	0
96	20603	0.356	0
96	20606	0.356	0
96	20609	0.356	0
96	20612	0.356	0
96	20615	0.356	0
96	20618	0.356	0
96	20635	0.356	0
96	20644	0.356	0
96	20647	0.356	0
96	20680	0.357	0
96	20683	0.357	0
96	20692	0.357	0
96	20719	0.358	0
96	20728	0.358	0
96	20730	0.358	0
96	20764	0.359	0
96	20766	0.359	0
96	20820	0.36	0
96	20823	0.36	0
96	20876	0.361	0
96	20879	0.361	0
96	20909	0.362	0
96	20912	0.362	0
96	20915	0.362	0
96	20924	0.362	0
96	20927	0.362	0
96	20930	0.362	0
96	20933	0.362	0
96	20936	0.362	0
96	20939	0.362	0
96	20956	0.362	0
96	20962	0.362	0
96	20965	0.362	0
96	20974	0.362	0
96	21001	0.363	0
96	21010	0.363	0
96	21012	0.363	0
96	21046	0.364	0
96	21048	0.364	0
96	21082	0.365	0
96	21085	0.365	0
96	21138	0.366	0
96	21141	0.366	0
96	21194	0.367	0
96	21197	0.367	0
96	21206	0.367	0
96	21233	0.368	0
96	21236	0.368	0
96	21239	0.368	0
96	21248	0.368	0
96	21251	0.368	0
96	21254	0.368	0
96	21257	0.368	0
96	21260	0.368	0
96	21263	0.368	0
96	21280	0.368	0
96	21283	0.368	0
96	21292	0.368	0
96	21294	0.368	0
96	21328	0.369	0
96	21330	0.369	0
96	21364	0.37	0
96	21367	0.37	0
96	21400	0.371	0
96	21403	0.371	0
96	21456	0.372	0
96	21459	0.372	0
96	21468	0.372	0
96	21515	0.373	0
96	21524	0.373	0
96	21526	0.373	0
96	21554	0.374	0
96	21557	0.374	0
96	21560	0.374	0
96	21569	0.374	0
96	21572	0.374	0
96	21575	0.374	0
96	21578	0.374	0
96	21581	0.374	0
96	21584	0.374	0
96	21601	0.374	0
96	21610	0.374	0
96	21612	0.374	0
96	21646	0.375	0
96	21649	0.375	0
96	21682	0.376	0
96	21685	0.376	0
96	21718	0.377	0
96	21721	0.377	0
96	21730	0.377	0
96	21777	0.378	0
96	21786	0.378	0
96	21788	0.378	0
96	21842	0.379	0
96	21844	0.379	0
96	21872	0.38	0
96	21875	0.38	0
96	21878	0.38	0
96	21887	0.38	0
96	21890	0.38	0
96	21893	0.38	0
96	21896	0.38	0
96	21899	0.38	0
96	21902	0.38	0
96	21919	0.38	0
96	21928	0.38	0
96	21931	0.38	0
96	21964	0.381	0
96	21967	0.381	0
96	22000	0.382	0
96	22003	0.382	0
96	22012	0.382	0
96	22039	0.383	0
96	22048	0.383	0
96	22050	0.383	0
96	22104	0.384	0
96	22106	0.384	0
96	22160	0.385	0
96	22163	0.385	0
96	22190	0.386	0
96	22193	0.386	0
96	22196	0.386	0
96	22205	0.386	0
96	22208	0.386	0
96	22211	0.386	0
96	22214	0.386	0
96	22217	0.386	0
96	22220	0.386	0
96	22237	0.386	0
96	22246	0.386	0
96	22249	0.386	0
96	22282	0.387	0
96	22285	0.387	0
96	22294	0.387	0
96	22321	0.388	0
96	22330	0.388	0
96	22332	0.388	0
96	22366	0.389	0
96	22368	0.389	0
96	22422	0.39	0
96	22425	0.39	0
96	22478	0.391	0
96	22481	0.391	0
96	22511	0.392	0
96	22514	0.392	0
96	22517	0.392	0
96	22526	0.392	0
96	22529	0.392	0
96	22532	0.392	0
96	22535	0.392	0
96	22538	0.392	0
96	22541	0.392	0
96	22558	0.392	0
96	22564	0.392	0
96	22567	0.392	0
96	22576	0.392	0
96	22603	0.393	0
96	22612	0.393	0
96	22614	0.393	0
96	22648	0.394	0
96	22650	0.394	0
96	22684	0.395	0
96	22687	0.395	0
96	22740	0.396	0
96	22743	0.396	0
96	22796	0.397	0
96	22799	0.397	0
96	22808	0.397	0
96	22835	0.398	0
96	22838	0.398	0
96	22841	0.398	0
96	22850	0.398	0
96	22853	0.398	0
96	22856	0.398	0
96	22859	0.398	0
96	22862	0.398	0
96	22865	0.398	0
96	22882	0.398	0
96	22885	0.398	0
96	22894	0.398	0
96	22896	0.398	0
96	22930	0.399	0
96	22932	0.399	0
96	22966	0.4	0
96	22969	0.4	0
96	23002	0.401	0
96	23005	0.401	0
96	23058	0.402	0
96	23061	0.402	0
96	23070	0.402	0
96	23117	0.403	0
96	23126	0.403	0
96	23128	0.403	0
96	23156	0.404	0
96	23159	0.404	0
96	23162	0.404	0
96	23171	0.404	0
96	23174	0.404	0
96	23177	0.404	0
96	23180	0.404	0
96	23183	0.404	0
96	23186	0.404	0
96	23203	0.404	0
96	23212	0.404	0
96	23214	0.404	0
96	23248	0.405	0
96	23251	0.405	0
96	23284	0.406	0
96	23287	0.406	0
96	23320	0.407	0
96	23323	0.407	0
96	23332	0.407	0
96	23387	0.408	0
96	23396	0.408	0
96	23398	0.408	0
96	23452	0.409	0
96	23454	0.409	0
96	23482	0.41	0
96	23485	0.41	0
96	23488	0.41	0
96	23497	0.41	0
96	23500	0.41	0
96	23503	0.41	0
96	23506	0.41	0
96	23509	0.41	0
96	23512	0.41	0
96	23529	0.41	0
96	23538	0.41	0
96	23541	0.41	0
96	23574	0.411	0
96	23577	0.411	0
96	23610	0.412	0
96	23613	0.412	0
96	23622	0.412	0
96	23649	0.413	0
96	23658	0.413	0
96	23660	0.413	0
96	23714	0.414	0
96	23716	0.414	0
96	23770	0.415	0
96	23773	0.415	0
96	23800	0.416	0
96	23803	0.416	0
96	23806	0.416	0
96	23815	0.416	0
96	23818	0.416	0
96	23821	0.416	0
96	23824	0.416	0
96	23827	0.416	0
96	23830	0.416	0
96	23847	0.416	0
96	23856	0.416	0
96	23859	0.416	0
96	23892	0.417	0
96	23895	0.417	0
96	23904	0.417	0
96	23931	0.418	0
96	23940	0.418	0
96	23942	0.418	0
96	23976	0.419	0
96	23978	0.419	0
96	24032	0.42	0
96	24035	0.42	0
96	24088	0.421	0
96	24091	0.421	0
96	24121	0.422	0
96	24124	0.422	0
96	24127	0.422	0
96	24136	0.422	0
96	24139	0.422	0
96	24142	0.422	0
96	24145	0.422	0
96	24148	0.422	0
96	24151	0.422	0
96	24168	0.422	0
96	24174	0.422	0
96	24177	0.422	0
96	24186	0.422	0
96	24213	0.423	0
96	24222	0.423	0
96	24224	0.423	0
96	24258	0.424	0
96	24260	0.424	0
96	24294	0.425	0
96	24297	0.425	0
96	24350	0.426	0
96	24353	0.426	0
96	24406	0.427	0
96	24409	0.427	0
96	24418	0.427	0
96	24445	0.428	0
96	24448	0.428	0
96	24451	0.428	0
96	24460	0.428	0
96	24463	0.428	0
96	24466	0.428	0
96	24469	0.428	0
96	24472	0.428	0
96	24475	0.428	0
96	24492	0.428	0
96	24495	0.428	0
96	24504	0.428	0
96	24506	0.428	0
96	24540	0.429	0
96	24542	0.429	0
96	24576	0.43	0
96	24579	0.43	0
96	24612	0.431	0
96	24615	0.431	0
96	24668	0.432	0
96	24671	0.432	0
96	24680	0.432	0
96	24727	0.433	0
96	24736	0.433	0
96	24738	0.433	0
96	24766	0.434	0
96	24769	0.434	0
96	24772	0.434	0
96	24781	0.434	0
96	24784	0.434	0
96	24787	0.434	0
96	24790	0.434	0
96	24793	0.434	0
96	24796	0.434	0
96	24813	0.434	0
96	24822	0.434	0
96	24824	0.434	0
96	24858	0.435	0
96	24861	0.435	0
96	24894	0.436	0
96	24897	0.436	0
96	24930	0.437	0
96	24933	0.437	0
96	24942	0.437	0
96	24989	0.438	0
96	24998	0.438	0
96	25000	0.438	0
96	25054	0.439	0
96	25056	0.439	0
96	25084	0.44	0
96	25087	0.44	0
96	25090	0.44	0
96	25099	0.44	0
96	25102	0.44	0
96	25105	0.44	0
96	25108	0.44	0
96	25111	0.44	0
96	25114	0.44	0
96	25131	0.44	0
96	25140	0.44	0
96	25143	0.44	0
96	25176	0.441	0
96	25179	0.441	0
96	25212	0.442	0
96	25215	0.442	0
96	25224	0.442	0
96	25251	0.443	0
96	25260	0.443	0
96	25262	0.443	0
96	25316	0.444	0
96	25318	0.444	0
96	25372	0.445	0
96	25375	0.445	0
96	25402	0.446	0
96	25405	0.446	0
96	25408	0.446	0
96	25417	0.446	0
96	25420	0.446	0
96	25423	0.446	0
96	25426	0.446	0
96	25429	0.446	0
96	25432	0.446	0
96	25449	0.446	0
96	25458	0.446	0
96	25461	0.446	0
96	25494	0.447	0
96	25497	0.447	0
96	25506	0.447	0
96	25533	0.448	0
96	25542	0.448	0
96	25544	0.448	0
96	25578	0.449	0
96	25580	0.449	0
96	25634	0.45	0
96	25637	0.45	0
96	25690	0.451	0
96	25693	0.451	0
96	25723	0.452	0
96	25726	0.452	0
96	25729	0.452	0
96	25738	0.452	0
96	25741	0.452	0
96	25744	0.452	0
96	25747	0.452	0
96	25750	0.452	0
96	25753	0.452	0
96	25770	0.452	0
96	25776	0.452	0
96	25779	0.452	0
96	25788	0.452	0
96	25815	0.453	0
96	25824	0.453	0
96	25826	0.453	0
96	25860	0.454	0
96	25862	0.454	0
96	25896	0.455	0
96	25899	0.455	0
96	25952	0.456	0
96	25955	0.456	0
96	26008	0.457	0
96	26011	0.457	0
96	26020	0.457	0
96	26055	0.458	0
96	26058	0.458	0
96	26061	0.458	0
96	26070	0.458	0
96	26073	0.458	0
96	26076	0.458	0
96	26079	0.458	0
96	26082	0.458	0
96	26085	0.458	0
96	26102	0.458	0
96	26105	0.458	0
96	26114	0.458	0
96	26116	0.458	0
96	26150	0.459	0
96	26152	0.459	0
96	26186	0.46	0
96	26189	0.46	0
96	26222	0.461	0
96	26225	0.461	0
96	26278	0.462	0
96	26281	0.462	0
96	26290	0.462	0
96	26337	0.463	0
96	26346	0.463	0
96	26348	0.463	0
96	26376	0.464	0
96	26379	0.464	0
96	26382	0.464	0
96	26391	0.464	0
96	26394	0.464	0
96	26397	0.464	0
96	26400	0.464	0
96	26403	0.464	0
96	26406	0.464	0
96	26423	0.464	0
96	26432	0.464	0
96	26434	0.464	0
96	26468	0.465	0
96	26471	0.465	0
96	26504	0.466	0
96	26507	0.466	0
96	26540	0.467	0
96	26543	0.467	0
96	26552	0.467	0
96	26599	0.468	0
96	26608	0.468	0
96	26610	0.468	0
96	26664	0.469	0
96	26666	0.469	0
96	26694	0.47	0
96	26697	0.47	0
96	26700	0.47	0
96	26709	0.47	0
96	26712	0.47	0
96	26715	0.47	0
96	26718	0.47	0
96	26721	0.47	0
96	26724	0.47	0
96	26741	0.47	0
96	26750	0.47	0
96	26753	0.47	0
[...]
1174	11860	0.2070005104	104
1174	11860	0.2070005104	106
1174	11860	0.2070005104	108
1174	11860	0.2070005104	110
1174	11860	0.2070005104	112
1174	11860	0.2070005104	114
1174	11860	0.2070005104	116
1174	11860	0.2070005104	118
1174	11860	0.2070005104	120
1174	11860	0.2070005104	122
1174	11860	0.2070005104	124
1174	11860	0.2070005104	126
1174	11860	0.2070005104	128
1174	11860	0.2070005104	130
1174	11860	0.2070005104	132
1174	11860	0.2070005104	134
1174	11860	0.2070005104	136
1174	11860	0.2070005104	138
1174	11860	0.2070005104	140
1174	11860	0.2070005104	142
1174	11860	0.2070005104	144
1174	11860	0.2070005104	146
1174	11860	0.2070005104	148
1174	11860	0.2070005104	150
1174	11860	0.2070005104	152
1174	11860	0.2070005104	154
1174	11860	0.2070005104	156
1174	11860	0.2070005104	158
1174	11860	0.2070005104	160
1174	23340	0.4070019656	158
1174	23340	0.4070019656	156
1174	23340	0.4070019656	154
1174	23340	0.4070019656	152
1174	23340	0.4070019656	150
1174	23340	0.4070019656	148
1174	23340	0.4070019656	146
1174	23340	0.4070019656	144
1174	23340	0.4070019656	142
1174	23340	0.4070019656	140
1174	23340	0.4070019656	138
1174	23340	0.4070019656	136
1174	23340	0.4070019656	134
1174	23340	0.4070019656	132
1174	23340	0.4070019656	130
1174	23340	0.4070019656	128
1174	23340	0.4070019656	126
1174	23340	0.4070019656	124
1174	23340	0.4070019656	122
1174	23340	0.4070019656	120
1174	23340	0.4070019656	118
1174	23340	0.4070019656	116
1174	23340	0.4070019656	114
1174	23340	0.4070019656	112
1174	23340	0.4070019656	110
1174	23340	0.4070019656	108
1174	23340	0.4070019656	106
1174	23340	0.4070019656	104
1174	23340	0.4070019656	102
1174	23340	0.4070019656	100
1174	23340	0.4070019656	98
1174	23340	0.4070019656	96
1174	23340	0.4070019656	94
1174	23340	0.4070019656	92
1174	23340	0.4070019656	90
1174	23340	0.4070019656	88
1174	23340	0.4070019656	86
1174	23340	0.4070019656	84
1174	23340	0.4070019656	82
1174	23340	0.4070019656	80
1174	23340	0.4070019656	78
1174	23340	0.4070019656	76
1174	23340	0.4070019656	74
1174	23340	0.4070019656	72
1174	23340	0.4070019656	70
1174	23340	0.4070019656	68
1174	23340	0.4070019656	66
1174	23340	0.4070019656	64
1174	23340	0.4070019656	62
1174	23340	0.4070019656	60
1174	23340	0.4070019656	58
1174	23340	0.4070019656	56
1174	23340	0.4070019656	54
1174	23340	0.4070019656	52
1174	23340	0.4070019656	50
1174	23340	0.4070019656	48
1174	23340	0.4070019656	46
1174	23340	0.4070019656	44
1174	23340	0.4070019656	42
1174	23340	0.4070019656	40
1174	23340	0.4070019656	38
1174	23340	0.4070019656	36
1174	23340	0.4070019656	34
1174	23340	0.4070019656	32
1174	23340	0.4070019656	30
1174	23340	0.4070019656	28
1174	23340	0.4070019656	26
1174	23340	0.4070019656	24
1174	23340	0.4070019656	22
1174	23340	0.4070019656	20
1174	23340	0.4070019656	18
1174	23340	0.4070019656	16
1174	23340	0.4070019656	14
1174	23340	0.4070019656	12
1174	23340	0.4070019656	10
1174	23340	0.4070019656	8
1174	23340	0.4070019656	6
1174	23340	0.4070019656	4
1174	23340	0.4070019656	2
1174	23340	0.4070019656	0
1175	593	0.007	2
1175	645	0.0070001912	0
1175	645	0.0070001912	2
1175	645	0.0070001912	4
1175	645	0.0070001912	6
1175	645	0.0070001912	8
1175	645	0.0070001912	10
1175	645	0.0070001912	12
1175	645	0.0070001912	14
1175	645	0.0070001912	16
1175	645	0.0070001912	18
1175	11860	0.2070005104	16
1175	11860	0.2070005104	14
1175	11860	0.2070005104	12
1175	11860	0.2070005104	10
1175	11860	0.2070005104	8
1175	11860	0.2070005104	6
1175	11860	0.2070005104	4
1175	11860	0.2070005104	2
1175	11860	0.2070005104	0
1175	11860	0.2070005104	2
1175	11860	0.2070005104	4
1175	11860	0.2070005104	6
1175	11860	0.2070005104	8
1175	11860	0.2070005104	10
1175	11860	0.2070005104	12
1175	11860	0.2070005104	14
1175	11860	0.2070005104	16
1175	11860	0.2070005104	18
1175	11860	0.2070005104	20
1175	11860	0.2070005104	22
1175	11860	0.2070005104	24
1175	11860	0.2070005104	26
1175	11860	0.2070005104	28
1175	11860	0.2070005104	30
1175	11860	0.2070005104	32
1175	11860	0.2070005104	34
1175	11860	0.2070005104	36
1175	11860	0.2070005104	38
1175	11860	0.2070005104	40
1175	11860	0.2070005104	42
1175	11860	0.2070005104	44
1175	11860	0.2070005104	46
1175	11860	0.2070005104	48
1175	11860	0.2070005104	50
1175	11860	0.2070005104	52
1175	11860	0.2070005104	54
1175	11860	0.2070005104	56
1175	11860	0.2070005104	58
1175	11860	0.2070005104	60
1175	11860	0.2070005104	62
1175	11860	0.2070005104	64
1175	11860	0.2070005104	66
1175	11860	0.2070005104	68
1175	11860	0.2070005104	70
1175	11860	0.2070005104	72
1175	11860	0.2070005104	74
1175	11860	0.2070005104	76
1175	11860	0.2070005104	78
1175	11860	0.2070005104	80
1175	11860	0.2070005104	82
1175	11860	0.2070005104	84
1175	11860	0.2070005104	86
1175	11860	0.2070005104	88
1175	11860	0.2070005104	90
1175	11860	0.2070005104	92
1175	11860	0.2070005104	94
1175	11860	0.2070005104	96
1175	11860	0.2070005104	98
1175	11860	0.2070005104	100
1175	11860	0.2070005104	102
1175	11860	0.2070005104	104
1175	11860	0.2070005104	106
1175	11860	0.2070005104	108
1175	11860	0.2070005104	110
1175	11860	0.2070005104	112
1175	11860	0.2070005104	114
1175	11860	0.2070005104	116
1175	11860	0.2070005104	118
1175	11860	0.2070005104	120
1175	11860	0.2070005104	122
1175	11860	0.2070005104	124
1175	11860	0.2070005104	126
1175	11860	0.2070005104	128
1175	11860	0.2070005104	130
1175	11860	0.2070005104	132
1175	11860	0.2070005104	134
1175	11860	0.2070005104	136
1175	11860	0.2070005104	138
1175	11860	0.2070005104	140
1175	11860	0.2070005104	142
1175	11860	0.2070005104	144
1175	11860	0.2070005104	146
1175	11860	0.2070005104	148
1175	11860	0.2070005104	150
1175	11860	0.2070005104	152
1175	11860	0.2070005104	154
1175	11860	0.2070005104	156
1175	11860	0.2070005104	158
1175	11860	0.2070005104	160
1175	23340	0.4070019656	158
1175	23340	0.4070019656	156
1175	23340	0.4070019656	154
1175	23340	0.4070019656	152
1175	23340	0.4070019656	150
1175	23340	0.4070019656	148
1175	23340	0.4070019656	146
1175	23340	0.4070019656	144
1175	23340	0.4070019656	142
1175	23340	0.4070019656	140
1175	23340	0.4070019656	138
1175	23340	0.4070019656	136
1175	23340	0.4070019656	134
1175	23340	0.4070019656	132
1175	23340	0.4070019656	130
1175	23340	0.4070019656	128
1175	23340	0.4070019656	126
1175	23340	0.4070019656	124
1175	23340	0.4070019656	122
1175	23340	0.4070019656	120
1175	23340	0.4070019656	118
1175	23340	0.4070019656	116
1175	23340	0.4070019656	114
1175	23340	0.4070019656	112
1175	23340	0.4070019656	110
1175	23340	0.4070019656	108
1175	23340	0.4070019656	106
1175	23340	0.4070019656	104
1175	23340	0.4070019656	102
1175	23340	0.4070019656	100
1175	23340	0.4070019656	98
1175	23340	0.4070019656	96
1175	23340	0.4070019656	94
1175	23340	0.4070019656	92
1175	23340	0.4070019656	90
1175	23340	0.4070019656	88
1175	23340	0.4070019656	86
1175	23340	0.4070019656	84
1175	23340	0.4070019656	82
1175	23340	0.4070019656	80
1175	23340	0.4070019656	78
1175	23340	0.4070019656	76
1175	23340	0.4070019656	74
1175	23340	0.4070019656	72
1175	23340	0.4070019656	70
1175	23340	0.4070019656	68
1175	23340	0.4070019656	66
1175	23340	0.4070019656	64
1175	23340	0.4070019656	62
1175	23340	0.4070019656	60
1175	23340	0.4070019656	58
1175	23340	0.4070019656	56
1175	23340	0.4070019656	54
1175	23340	0.4070019656	52
1175	23340	0.4070019656	50
1175	23340	0.4070019656	48
1175	23340	0.4070019656	46
1175	23340	0.4070019656	44
1175	23340	0.4070019656	42
1175	23340	0.4070019656	40
1175	23340	0.4070019656	38
1175	23340	0.4070019656	36
1175	23340	0.4070019656	34
1175	23340	0.4070019656	32
1175	23340	0.4070019656	30
1175	23340	0.4070019656	28
1175	23340	0.4070019656	26
1175	23340	0.4070019656	24
1175	23340	0.4070019656	22
1175	23340	0.4070019656	20
1175	23340	0.4070019656	18
1175	23340	0.4070019656	16
1175	23340	0.4070019656	14
1175	23340	0.4070019656	12
1175	23340	0.4070019656	10
1175	23340	0.4070019656	8
1175	23340	0.4070019656	6
1175	23340	0.4070019656	4
1175	23340	0.4070019656	2
1175	23340	0.4070019656	0
1178	645	0.0070001912	0
1178	11860	0.2070005104	0
1178	23340	0.4070019656	0
1179	645	0.0070001912	0
1179	11860	0.2070005104	0
1179	23340	0.4070019656	0
1180	645	0.0070001912	0
1180	11860	0.2070005104	0
1180	23340	0.4070019656	0
1181	645	0.0070001912	0
1181	11860	0.2070005104	0
1181	23340	0.4070019656	0
1182	150	0.0000001228	0
1185	645	0.0070001912	2000
1185	11860	0.2070005104	2009
1185	23340	0.4070019656	2089
1187	645	0.0070001912	0
1187	11860	0.2070005104	0
1187	23340	0.4070019656	0
1188	645	0.0070001912	0
1188	11860	0.2070005104	0
1188	23340	0.4070019656	0
1190	235	0.0000006304	3
1192	235	0.0000006304	65535
1193	235	0.0000006304	8940
1194	235	0.0000006304	0.3725
1197	235	0.0000006304	1
1209	163	0.0000003096	0
1217	235	0.0000006304	3
1219	235	0.0000006304	65535
1220	235	0.0000006304	8940
1221	235	0.0000006304	0.3725
1224	235	0.0000006304	1
1236	163	0.0000003096	0
1244	236	0.0000006304	3
1246	236	0.0000006304	65535
1247	236	0.0000006304	8940
1248	236	0.0000006304	0.3725
1251	236	0.0000006304	1
1263	164	0.0000003096	0
1271	236	0.0000006304	3
1273	236	0.0000006304	65535
1274	236	0.0000006304	8940
1275	236	0.0000006304	0.3725
1278	236	0.0000006304	1
1290	164	0.0000003096	0
1300	3362	0.0570001912	0
1300	14915	0.2570005104	0
1300	26028	0.4570019656	0
1301	3292	0.057	1
1301	3292	0.057	0
1301	3293	0.057	1
1301	3294	0.057	2
1301	3295	0.057	3
1301	3296	0.057	4
1301	3297	0.057	5
1301	3298	0.057	6
1301	3299	0.057	7
1301	3300	0.057	8
1301	3301	0.057	9
1301	3362	0.0570001912	8
1301	3362	0.0570001912	7
1301	3362	0.0570001912	6
1301	3362	0.0570001912	5
1301	3362	0.0570001912	4
1301	3362	0.0570001912	3
1301	3362	0.0570001912	2
1301	3362	0.0570001912	1
1301	3362	0.0570001912	0
1301	3727	0.063	1
1301	3728	0.063	2
1301	3729	0.063	3
1301	3730	0.063	4
1301	3731	0.063	5
1301	3732	0.063	6
1301	3733	0.063	7
1301	3734	0.063	8
1301	3735	0.063	9
1301	3736	0.063	10
1301	4090	0.069	11
1301	4091	0.069	12
1301	4092	0.069	13
1301	4093	0.069	14
1301	4094	0.069	15
1301	4095	0.069	16
1301	4096	0.069	17
1301	4097	0.069	18
1301	4098	0.069	19
1301	4099	0.069	20
1301	4482	0.075	21
1301	4483	0.075	22
1301	4484	0.075	23
1301	4485	0.075	24
1301	4486	0.075	25
1301	4487	0.075	26
1301	4488	0.075	27
1301	4489	0.075	28
1301	4490	0.075	29
1301	4491	0.075	30
1301	4873	0.081	31
1301	4874	0.081	32
1301	4875	0.081	33
1301	4876	0.081	34
1301	4877	0.081	35
1301	4878	0.081	36
1301	4879	0.081	37
1301	4880	0.081	38
1301	4881	0.081	39
1301	4882	0.081	40
1301	5274	0.087	41
1301	5275	0.087	42
1301	5276	0.087	43
1301	5277	0.087	44
1301	5278	0.087	45
1301	5279	0.087	46
1301	5280	0.087	47
1301	5281	0.087	48
1301	5282	0.087	49
1301	5283	0.087	50
1301	5637	0.093	51
1301	5638	0.093	52
1301	5639	0.093	53
1301	5640	0.093	54
1301	5641	0.093	55
1301	5642	0.093	56
1301	5643	0.093	57
1301	5644	0.093	58
1301	5645	0.093	59
1301	5646	0.093	60
1301	5997	0.099	61
1301	5998	0.099	62
1301	5999	0.099	63
1301	6000	0.099	64
1301	6001	0.099	65
1301	6002	0.099	66
1301	6003	0.099	67
1301	6004	0.099	68
1301	6005	0.099	69
1301	6006	0.099	70
1301	6355	0.105	71
1301	6356	0.105	72
1301	6357	0.105	73
1301	6358	0.105	74
1301	6359	0.105	75
1301	6360	0.105	76
1301	6361	0.105	77
1301	6362	0.105	78
1301	6363	0.105	79
1301	6364	0.105	80
1301	14915	0.2570005104	79
1301	14915	0.2570005104	78
1301	14915	0.2570005104	77
1301	14915	0.2570005104	76
1301	14915	0.2570005104	75
1301	14915	0.2570005104	74
1301	14915	0.2570005104	73
1301	14915	0.2570005104	72
1301	14915	0.2570005104	71
1301	14915	0.2570005104	70
1301	14915	0.2570005104	69
1301	14915	0.2570005104	68
1301	14915	0.2570005104	67
1301	14915	0.2570005104	66
1301	14915	0.2570005104	65
1301	14915	0.2570005104	64
1301	14915	0.2570005104	63
1301	14915	0.2570005104	62
1301	14915	0.2570005104	61
1301	14915	0.2570005104	60
1301	14915	0.2570005104	59
1301	14915	0.2570005104	58
1301	14915	0.2570005104	57
1301	14915	0.2570005104	56
1301	14915	0.2570005104	55
1301	14915	0.2570005104	54
1301	14915	0.2570005104	53
1301	14915	0.2570005104	52
1301	14915	0.2570005104	51
1301	14915	0.2570005104	50
1301	14915	0.2570005104	49
1301	14915	0.2570005104	48
1301	14915	0.2570005104	47
1301	14915	0.2570005104	46
1301	14915	0.2570005104	45
1301	14915	0.2570005104	44
1301	14915	0.2570005104	43
1301	14915	0.2570005104	42
1301	14915	0.2570005104	41
1301	14915	0.2570005104	40
1301	14915	0.2570005104	39
1301	14915	0.2570005104	38
1301	14915	0.2570005104	37
1301	14915	0.2570005104	36
1301	14915	0.2570005104	35
1301	14915	0.2570005104	34
1301	14915	0.2570005104	33
1301	14915	0.2570005104	32
1301	14915	0.2570005104	31
1301	14915	0.2570005104	30
1301	14915	0.2570005104	29
1301	14915	0.2570005104	28
1301	14915	0.2570005104	27
1301	14915	0.2570005104	26
1301	14915	0.2570005104	25
1301	14915	0.2570005104	24
1301	14915	0.2570005104	23
1301	14915	0.2570005104	22
1301	14915	0.2570005104	21
1301	14915	0.2570005104	20
1301	14915	0.2570005104	19
1301	14915	0.2570005104	18
1301	14915	0.2570005104	17
1301	14915	0.2570005104	16
1301	14915	0.2570005104	15
1301	14915	0.2570005104	14
1301	14915	0.2570005104	13
1301	14915	0.2570005104	12
1301	14915	0.2570005104	11
1301	14915	0.2570005104	10
1301	14915	0.2570005104	9
1301	14915	0.2570005104	8
1301	14915	0.2570005104	7
1301	14915	0.2570005104	6
1301	14915	0.2570005104	5
1301	14915	0.2570005104	4
1301	14915	0.2570005104	3
1301	14915	0.2570005104	2
1301	14915	0.2570005104	1
1301	14915	0.2570005104	0
1304	645	0.0070001912	0
1304	11860	0.2070005104	0
1304	23340	0.4070019656	0
1305	593	0.007	1
1305	593	0.007	0
1305	594	0.007	1
1305	595	0.007	2
1305	596	0.007	3
1305	597	0.007	4
1305	598	0.007	5
1305	599	0.007	6
1305	600	0.007	7
1305	601	0.007	8
1305	602	0.007	9
1305	645	0.0070001912	8
1305	645	0.0070001912	7
1305	645	0.0070001912	6
1305	645	0.0070001912	5
1305	645	0.0070001912	4
1305	645	0.0070001912	3
1305	645	0.0070001912	2
1305	645	0.0070001912	1
1305	645	0.0070001912	0
1305	908	0.013	1
1305	909	0.013	2
1305	910	0.013	3
1305	911	0.013	4
1305	912	0.013	5
1305	913	0.013	6
1305	914	0.013	7
1305	915	0.013	8
1305	916	0.013	9
1305	917	0.013	10
1305	1152	0.019	11
1305	1153	0.019	12
1305	1154	0.019	13
1305	1155	0.019	14
1305	1156	0.019	15
1305	1157	0.019	16
1305	1158	0.019	17
1305	1159	0.019	18
1305	1160	0.019	19
1305	1161	0.019	20
1305	1428	0.025	21
1305	1429	0.025	22
1305	1430	0.025	23
1305	1431	0.025	24
1305	1432	0.025	25
1305	1433	0.025	26
1305	1434	0.025	27
1305	1435	0.025	28
1305	1436	0.025	29
1305	1437	0.025	30
1305	1737	0.031	31
1305	1738	0.031	32
1305	1739	0.031	33
1305	1740	0.031	34
1305	1741	0.031	35
1305	1742	0.031	36
1305	1743	0.031	37
1305	1744	0.031	38
1305	1745	0.031	39
1305	1746	0.031	40
1305	2073	0.037	41
1305	2074	0.037	42
1305	2075	0.037	43
1305	2076	0.037	44
1305	2077	0.037	45
1305	2078	0.037	46
1305	2079	0.037	47
1305	2080	0.037	48
1305	2081	0.037	49
1305	2082	0.037	50
1305	2444	0.043	51
1305	2445	0.043	52
1305	2446	0.043	53
1305	2447	0.043	54
1305	2448	0.043	55
1305	2449	0.043	56
1305	2450	0.043	57
1305	2451	0.043	58
1305	2452	0.043	59
1305	2453	0.043	60
1305	2791	0.049	61
1305	2792	0.049	62
1305	2793	0.049	63
1305	2794	0.049	64
1305	2795	0.049	65
1305	2796	0.049	66
1305	2797	0.049	67
1305	2798	0.049	68
1305	2799	0.049	69
1305	2800	0.049	70
1305	3129	0.055	71
1305	3130	0.055	72
1305	3131	0.055	73
1305	3132	0.055	74
1305	3133	0.055	75
1305	3134	0.055	76
1305	3135	0.055	77
1305	3136	0.055	78
1305	3137	0.055	79
1305	3138	0.055	80
1305	11860	0.2070005104	79
1305	11860	0.2070005104	78
1305	11860	0.2070005104	77
1305	11860	0.2070005104	76
1305	11860	0.2070005104	75
1305	11860	0.2070005104	74
1305	11860	0.2070005104	73
1305	11860	0.2070005104	72
1305	11860	0.2070005104	71
1305	11860	0.2070005104	70
1305	11860	0.2070005104	69
1305	11860	0.2070005104	68
1305	11860	0.2070005104	67
1305	11860	0.2070005104	66
1305	11860	0.2070005104	65
1305	11860	0.2070005104	64
1305	11860	0.2070005104	63
1305	11860	0.2070005104	62
1305	11860	0.2070005104	61
1305	11860	0.2070005104	60
1305	11860	0.2070005104	59
1305	11860	0.2070005104	58
1305	11860	0.2070005104	57
1305	11860	0.2070005104	56
1305	11860	0.2070005104	55
1305	11860	0.2070005104	54
1305	11860	0.2070005104	53
1305	11860	0.2070005104	52
1305	11860	0.2070005104	51
1305	11860	0.2070005104	50
1305	11860	0.2070005104	49
1305	11860	0.2070005104	48
1305	11860	0.2070005104	47
1305	11860	0.2070005104	46
1305	11860	0.2070005104	45
1305	11860	0.2070005104	44
1305	11860	0.2070005104	43
1305	11860	0.2070005104	42
1305	11860	0.2070005104	41
1305	11860	0.2070005104	40
1305	11860	0.2070005104	39
1305	11860	0.2070005104	38
1305	11860	0.2070005104	37
1305	11860	0.2070005104	36
1305	11860	0.2070005104	35
1305	11860	0.2070005104	34
1305	11860	0.2070005104	33
1305	11860	0.2070005104	32
1305	11860	0.2070005104	31
1305	11860	0.2070005104	30
1305	11860	0.2070005104	29
1305	11860	0.2070005104	28
1305	11860	0.2070005104	27
1305	11860	0.2070005104	26
1305	11860	0.2070005104	25
1305	11860	0.2070005104	24
1305	11860	0.2070005104	23
1305	11860	0.2070005104	22
1305	11860	0.2070005104	21
1305	11860	0.2070005104	20
1305	11860	0.2070005104	19
1305	11860	0.2070005104	18
1305	11860	0.2070005104	17
1305	11860	0.2070005104	16
1305	11860	0.2070005104	15
1305	11860	0.2070005104	14
1305	11860	0.2070005104	13
1305	11860	0.2070005104	12
1305	11860	0.2070005104	11
1305	11860	0.2070005104	10
1305	11860	0.2070005104	9
1305	11860	0.2070005104	8
1305	11860	0.2070005104	7
1305	11860	0.2070005104	6
1305	11860	0.2070005104	5
1305	11860	0.2070005104	4
1305	11860	0.2070005104	3
1305	11860	0.2070005104	2
1305	11860	0.2070005104	1
1305	11860	0.2070005104	0
1319	1187	0.019660798032	7504
1319	162839	3.019660798032	7504
1320	1187	0.019660798032	7504
1320	162839	3.019660798032	7504
1322	1187	0.019660798032	0
1322	162839	3.019660798032	0
1333	1187	0.019660798032	0
1333	162839	3.019660798032	0
1343	1304	0.022555459228	7504
1343	163021	3.022555459228	7504
1344	1304	0.022555459228	7504
1344	163021	3.022555459228	7504
1346	1304	0.022555459228	0
1346	163021	3.022555459228	0
1357	1304	0.022555459228	0
1357	163021	3.022555459228	0
1367	1467	0.025952952534	7504
1367	163193	3.025952952534	7504
1368	1467	0.025952952534	7504
1368	163193	3.025952952534	7504
1370	1467	0.025952952534	0
1370	163193	3.025952952534	0
1381	1467	0.025952952534	0
1381	163193	3.025952952534	0
1391	1604	0.028524626123	7504
1392	1604	0.028524626123	7504
1394	1604	0.028524626123	0
1405	1604	0.028524626123	0
1415	1855	0.032752273618	7504
1416	1855	0.032752273618	7504
1418	1855	0.032752273618	0
1429	1855	0.032752273618	0
1439	2138	0.037729873816	7504
1440	2138	0.037729873816	7504
1442	2138	0.037729873816	0
1453	2138	0.037729873816	0
1463	2647	0.046595396413	7504
1464	2647	0.046595396413	7504
1466	2647	0.046595396413	0
1477	2647	0.046595396413	0
1487	3014	0.053440309435	7504
1488	3014	0.053440309435	7504
1490	3014	0.053440309435	0
1501	3014	0.053440309435	0
1511	3022	0.05394782705	7504
1512	3022	0.05394782705	7504
1514	3022	0.05394782705	0
1525	3022	0.05394782705	0
1535	3182	0.055913616046	7504
1536	3182	0.055913616046	7504
1538	3182	0.055913616046	0
1549	3182	0.055913616046	0
1559	3451	0.058808041334	7504
1560	3451	0.058808041334	7504
1562	3451	0.058808041334	0
1573	3451	0.058808041334	0
1583	3551	0.060918334927	7504
1584	3551	0.060918334927	7504
1586	3551	0.060918334927	0
1597	3551	0.060918334927	0
1607	3893	0.066956260251	7504
1608	3893	0.066956260251	7504
1610	3893	0.066956260251	0
1621	3893	0.066956260251	0
1631	4053	0.068834142487	7504
1632	4053	0.068834142487	7504
1634	4053	0.068834142487	0
1645	4053	0.068834142487	0
1655	4140	0.069116189484	7504
1656	4140	0.069116189484	7504
1658	4140	0.069116189484	0
1669	4140	0.069116189484	0
1679	4445	0.074373740533	7504
1680	4445	0.074373740533	7504
1682	4445	0.074373740533	0
1693	4445	0.074373740533	0
1703	4533	0.07505697578	7504
1704	4533	0.07505697578	7504
1706	4533	0.07505697578	0
1717	4533	0.07505697578	0
1727	4974	0.08215464002	7504
1728	4974	0.08215464002	7504
1730	4974	0.08215464002	0
1741	4974	0.08215464002	0
1751	5020	0.083428886256	7504
1752	5020	0.083428886256	7504
1754	5020	0.083428886256	0
1765	5020	0.083428886256	0
1775	5237	0.086610205313	7504
1776	5237	0.086610205313	7504
1778	5237	0.086610205313	0
1789	5237	0.086610205313	0
