version 2
run CAIN-33-20200508-17:07:57-16274
attr configname CAIN
attr datetime 20200508-17:07:57
attr dist 200
attr experiment CAIN
attr inifile omnetpp.ini
attr iterationvars "$numUe=25, $pwr=-50, $dist=200, $mob=\"./movements/RWP-0.0.movements\""
attr iterationvars2 "$numUe=25, $pwr=-50, $dist=200, $mob=\"./movements/RWP-0.0.movements\", $repetition=3"
attr measurement "$numUe=25, $pwr=-50, $dist=200, $mob=\"./movements/RWP-0.0.movements\""
attr mob "\"./movements/RWP-0.0.movements\""
attr network lte.simulations.networks.CAIN
attr numUe 25
attr processid 16274
attr pwr -50
attr repetition 3
attr replication #3
attr resultdir results
attr runnumber 33
attr seedset 3
param **.**.amcMode "\"AUTO\""
param **.amcMode "\"D2D\""
param **.cainNetwork true
param **.channelControl.alpha 1.0
param **.channelControl.carrierFrequency 2100e+6Hz
param **.channelControl.pMax 10W
param **.d2dCqi 7
param **.deployer.numRbDl 50
param **.deployer.numRbUl 50
param **.distThresh ${dist=200}
param **.fbDelay 1
param **.feedbackComputation "xmldoc(\"config_channel.xml\")"
param **.mobility.constraintAreaMaxX 1000m
param **.mobility.constraintAreaMaxY 1000m
param **.mobility.constraintAreaMaxZ 0m
param **.mobility.constraintAreaMinX 0m
param **.mobility.constraintAreaMinY 0m
param **.mobility.constraintAreaMinZ 0m
param **.nic.phy.channelModel "xmldoc(\"config_channel.xml\")"
param **.numBands 50
param **.pwrThresh "${pwr= -50}"
param **.qtdThresh 3
param **.rbAllocationType "\"localized\""
param **.routingRecorder.enabled false
param **.tcpApp[*].tClose -1s
param **.ueD2DTx[*].mobility.changeAngleBy "normal(0deg, 30deg)"
param **.ueD2DTx[*].mobility.changeInterval "normal(5s, 0.1s)"
param **.ueD2DTx[*].mobility.nodeId -1
param **.ueD2DTx[*].mobility.speed "normal(2mps, 0.01mps)"
param **.ueD2DTx[*].mobility.traceFile "${mob=\"./movements/RWP-0.0.movements\",\"./movements/RWP-0.5.movements\",\"./movements/RPGM-0.0.movements\",\"./movements/RPGM-0.5.movements\",\"./movements/RWPRPGM-0.0.movements\",\"./movements/RWPRPGM-0.5.movements\"}"
param **.ueD2DTx[*].mobilityType "\"BonnMotionMobility\""
param **.usePreconfiguredTxParams false
param *.eNodeB*.numX2Apps 1
param *.eNodeB*.x2App[*].server.localPort "5000 + ancestorIndex(1)"
param *.eNodeB.d2dCapable false
param *.eNodeB.mobility.initFromDisplayString false
param *.eNodeB.mobility.initialX 300m
param *.eNodeB.mobility.initialY 300m
param *.eNodeB.nic.phy.enableD2DCqiReporting true
param *.eNodeB.txPower 19952.62315mw
param *.eNodeB.x2App[0].client.connectAddress "\"eNodeB1%x2ppp0\""
param *.eNodeB1.d2dCapable true
param *.eNodeB1.mobility.initFromDisplayString false
param *.eNodeB1.mobility.initialX 700m
param *.eNodeB1.mobility.initialY 300m
param *.eNodeB1.nic.phy.enableD2DCqiReporting true
param *.eNodeB1.txPower 19952.62315mw
param *.eNodeB1.x2App[0].client.connectAddress "\"eNodeB%x2ppp0\""
param *.extCell[*].bandAllocationType "\"FULL_ALLOC\""
param *.extCell[*].bandUtilization 0.5
param *.extCell[*].txDirection "\"ANISOTROPIC\""
param *.extCell[*].txPower 20
param *.extCell[0].position_x 100m
param *.extCell[0].position_y 600m
param *.extCell[0].txAngle 315
param *.extCell[1].position_x 600m
param *.extCell[1].position_y 600m
param *.extCell[1].txAngle 225
param *.numExtCells 2
param *.numUeCell 0
param *.numUeD2DRx 1
param *.numUeD2DTx 1
param *.ue*.macCellId 1
param *.ue*.masterId 1
param *.ue*.mobility.initFromDisplayString false
param *.ue*[0].macCellId 1
param *.ue*[0].masterId 1
param *.ue*[0].mobility.initFromDisplayString false
param *.ueD2D*.numTcpApps 1
param *.ueD2D*[*].d2dCapable true
param *.ueD2D*[0].d2dCapable false
param *.ueD2D*[0].numTcpApps 1
param *.ueD2DRx[0].mobility.initialX 310m
param *.ueD2DRx[0].mobility.initialY 350m
param *.ueD2DRx[0].tcpApp[*].localPort 1000
param *.ueD2DRx[0].tcpApp[*].typename "\"TCPSinkApp\""
param *.ueD2DTx*.nic.d2dPeerAddresses "\"ueD2DTx[1]\""
param *.ueD2DTx*.tcpApp[*].connectAddress "\"ueD2DTx[0]\""
param *.ueD2DTx*.tcpApp[*].localAddress "\"ueD2DTx\""
param *.ueD2DTx*.tcpApp[*].localPort 1000
param *.ueD2DTx*.tcpApp[*].sendBytes 1GiB
param *.ueD2DTx*.tcpApp[*].typename "\"TCPSessionApp\""
param *.ueD2DTx*.tcpApp[0].active true
param *.ueD2DTx*.tcpApp[0].connectPort 1000
param *.ueD2DTx*.tcpApp[0].tOpen uniform(0.010s,0.1s)
param *.ueD2DTx*.tcpApp[0].tSend uniform(0.15s,0.5s)
param *.ueD2DTx[0].mobility.initialX 290m
param *.ueD2DTx[0].mobility.initialY 350m
param *.ueD2DTx[0].tcpApp[*].localPort 1000
param *.ueD2DTx[0].tcpApp[*].sendBytes 1GiB
param *.ueD2DTx[0].tcpApp[*].typename "\"TCPSessionApp\""
param *.ueD2DTx[0].tcpApp[0].active true
param *.ueD2DTx[0].tcpApp[0].connectAddress "\"ueD2DRx[0]\""
param *.ueD2DTx[0].tcpApp[0].connectPort 1000
param *.ueD2DTx[0].tcpApp[0].localAddress "\"ueD2DTx[0]\""
param *.ueD2DTx[0].tcpApp[0].tOpen uniform(0.010s,0.1s)
param *.ueD2DTx[0].tcpApp[0].tSend uniform(0.15s,0.5s)
param *.ueD2DTx[1].mobility.initialX 690m
param *.ueD2DTx[1].mobility.initialY 250m

vector 8  CAIN.server.ppp[0].queue  queueLength:vector  ETV
attr interpolationmode  sample-hold
attr title  "queue length, vector"
vector 9  CAIN.server.ppp[0].ppp  txState:vector  ETV
attr interpolationmode  sample-hold
attr title  "tx state, vector"
vector 24  CAIN.router.ppp[0].queue  queueLength:vector  ETV
attr interpolationmode  sample-hold
attr title  "queue length, vector"
vector 25  CAIN.router.ppp[0].ppp  txState:vector  ETV
attr interpolationmode  sample-hold
attr title  "tx state, vector"
vector 35  CAIN.router.ppp[1].queue  queueLength:vector  ETV
attr interpolationmode  sample-hold
attr title  "queue length, vector"
vector 36  CAIN.router.ppp[1].ppp  txState:vector  ETV
attr interpolationmode  sample-hold
attr title  "tx state, vector"
vector 56  CAIN.pgw.ppp[0].queue  queueLength:vector  ETV
attr interpolationmode  sample-hold
attr title  "queue length, vector"
vector 57  CAIN.pgw.ppp[0].ppp  txState:vector  ETV
attr interpolationmode  sample-hold
attr title  "tx state, vector"
vector 67  CAIN.pgw.ppp[1].queue  queueLength:vector  ETV
attr interpolationmode  sample-hold
attr title  "queue length, vector"
vector 68  CAIN.pgw.ppp[1].ppp  txState:vector  ETV
attr interpolationmode  sample-hold
attr title  "tx state, vector"
vector 78  CAIN.pgw.pppInterface.queue  queueLength:vector  ETV
attr interpolationmode  sample-hold
attr title  "queue length, vector"
vector 79  CAIN.pgw.pppInterface.ppp  txState:vector  ETV
attr interpolationmode  sample-hold
attr title  "tx state, vector"
vector 120  CAIN.eNodeB.pppIf.queue  queueLength:vector  ETV
attr interpolationmode  sample-hold
attr title  "queue length, vector"
vector 121  CAIN.eNodeB.pppIf.ppp  txState:vector  ETV
attr interpolationmode  sample-hold
attr title  "tx state, vector"
vector 131  CAIN.eNodeB.x2ppp[0].queue  queueLength:vector  ETV
attr interpolationmode  sample-hold
attr title  "queue length, vector"
vector 132  CAIN.eNodeB.x2ppp[0].ppp  txState:vector  ETV
attr interpolationmode  sample-hold
attr title  "tx state, vector"
vector 178  CAIN.eNodeB1.pppIf.queue  queueLength:vector  ETV
attr interpolationmode  sample-hold
attr title  "queue length, vector"
vector 179  CAIN.eNodeB1.pppIf.ppp  txState:vector  ETV
attr interpolationmode  sample-hold
attr title  "tx state, vector"
vector 189  CAIN.eNodeB1.x2ppp[0].queue  queueLength:vector  ETV
attr interpolationmode  sample-hold
attr title  "queue length, vector"
vector 190  CAIN.eNodeB1.x2ppp[0].ppp  txState:vector  ETV
attr interpolationmode  sample-hold
attr title  "tx state, vector"
vector 231  CAIN.ueD2DTx[0].nic.phy  servingCell:vector  ETV
attr source  servingCell
attr title  "ID of the serving eNodeB for the UE, vector"
attr unit  ""
vector 263  CAIN.ueD2DTx[1].nic.phy  servingCell:vector  ETV
attr source  servingCell
attr title  "ID of the serving eNodeB for the UE, vector"
attr unit  ""
vector 295  CAIN.ueD2DTx[2].nic.phy  servingCell:vector  ETV
attr source  servingCell
attr title  "ID of the serving eNodeB for the UE, vector"
attr unit  ""
vector 327  CAIN.ueD2DTx[3].nic.phy  servingCell:vector  ETV
attr source  servingCell
attr title  "ID of the serving eNodeB for the UE, vector"
attr unit  ""
vector 359  CAIN.ueD2DTx[4].nic.phy  servingCell:vector  ETV
attr source  servingCell
attr title  "ID of the serving eNodeB for the UE, vector"
attr unit  ""
vector 391  CAIN.ueD2DTx[5].nic.phy  servingCell:vector  ETV
attr source  servingCell
attr title  "ID of the serving eNodeB for the UE, vector"
attr unit  ""
vector 423  CAIN.ueD2DTx[6].nic.phy  servingCell:vector  ETV
attr source  servingCell
attr title  "ID of the serving eNodeB for the UE, vector"
attr unit  ""
vector 455  CAIN.ueD2DTx[7].nic.phy  servingCell:vector  ETV
attr source  servingCell
attr title  "ID of the serving eNodeB for the UE, vector"
attr unit  ""
vector 487  CAIN.ueD2DTx[8].nic.phy  servingCell:vector  ETV
attr source  servingCell
attr title  "ID of the serving eNodeB for the UE, vector"
attr unit  ""
vector 519  CAIN.ueD2DTx[9].nic.phy  servingCell:vector  ETV
attr source  servingCell
attr title  "ID of the serving eNodeB for the UE, vector"
attr unit  ""
vector 551  CAIN.ueD2DTx[10].nic.phy  servingCell:vector  ETV
attr source  servingCell
attr title  "ID of the serving eNodeB for the UE, vector"
attr unit  ""
vector 583  CAIN.ueD2DTx[11].nic.phy  servingCell:vector  ETV
attr source  servingCell
attr title  "ID of the serving eNodeB for the UE, vector"
attr unit  ""
vector 615  CAIN.ueD2DTx[12].nic.phy  servingCell:vector  ETV
attr source  servingCell
attr title  "ID of the serving eNodeB for the UE, vector"
attr unit  ""
vector 647  CAIN.ueD2DTx[13].nic.phy  servingCell:vector  ETV
attr source  servingCell
attr title  "ID of the serving eNodeB for the UE, vector"
attr unit  ""
vector 679  CAIN.ueD2DTx[14].nic.phy  servingCell:vector  ETV
attr source  servingCell
attr title  "ID of the serving eNodeB for the UE, vector"
attr unit  ""
vector 711  CAIN.ueD2DTx[15].nic.phy  servingCell:vector  ETV
attr source  servingCell
attr title  "ID of the serving eNodeB for the UE, vector"
attr unit  ""
vector 743  CAIN.ueD2DTx[16].nic.phy  servingCell:vector  ETV
attr source  servingCell
attr title  "ID of the serving eNodeB for the UE, vector"
attr unit  ""
vector 775  CAIN.ueD2DTx[17].nic.phy  servingCell:vector  ETV
attr source  servingCell
attr title  "ID of the serving eNodeB for the UE, vector"
attr unit  ""
vector 807  CAIN.ueD2DTx[18].nic.phy  servingCell:vector  ETV
attr source  servingCell
attr title  "ID of the serving eNodeB for the UE, vector"
attr unit  ""
vector 839  CAIN.ueD2DTx[19].nic.phy  servingCell:vector  ETV
attr source  servingCell
attr title  "ID of the serving eNodeB for the UE, vector"
attr unit  ""
vector 871  CAIN.ueD2DTx[20].nic.phy  servingCell:vector  ETV
attr source  servingCell
attr title  "ID of the serving eNodeB for the UE, vector"
attr unit  ""
vector 903  CAIN.ueD2DTx[21].nic.phy  servingCell:vector  ETV
attr source  servingCell
attr title  "ID of the serving eNodeB for the UE, vector"
attr unit  ""
vector 935  CAIN.ueD2DTx[22].nic.phy  servingCell:vector  ETV
attr source  servingCell
attr title  "ID of the serving eNodeB for the UE, vector"
attr unit  ""
vector 967  CAIN.ueD2DTx[23].nic.phy  servingCell:vector  ETV
attr source  servingCell
attr title  "ID of the serving eNodeB for the UE, vector"
attr unit  ""
vector 999  CAIN.ueD2DTx[24].nic.phy  servingCell:vector  ETV
attr source  servingCell
attr title  "ID of the serving eNodeB for the UE, vector"
attr unit  ""
vector 1023  CAIN.eNodeB.sctp  "Throughput of Association 3"  ETV
vector 1045  CAIN.eNodeB1.sctp  "Throughput of Association 4"  ETV
vector 1067  CAIN.eNodeB.sctp  "Throughput of Association 1"  ETV
vector 1087  CAIN.eNodeB.sctp  "Fast Recovery State 1:10.0.5.2"  ETV
vector 1116  CAIN.eNodeB1.sctp  "Throughput of Association 2"  ETV
vector 1136  CAIN.eNodeB1.sctp  "Fast Recovery State 2:10.0.5.1"  ETV
vector 128  CAIN.eNodeB.x2ppp[0].queue  rcvdPk:vector(packetBytes)  ETV
attr interpolationmode  none
attr title  "received packets, vector(packetBytes)"
vector 130  CAIN.eNodeB.x2ppp[0].queue  queueingTime:vector  ETV
attr interpolationmode  none
attr title  "queueing time, vector"
vector 186  CAIN.eNodeB1.x2ppp[0].queue  rcvdPk:vector(packetBytes)  ETV
attr interpolationmode  none
attr title  "received packets, vector(packetBytes)"
vector 188  CAIN.eNodeB1.x2ppp[0].queue  queueingTime:vector  ETV
attr interpolationmode  none
attr title  "queueing time, vector"
vector 137  CAIN.eNodeB.x2ppp[0].ppp  rcvdPkFromHL:vector(packetBytes)  ETV
attr interpolationmode  none
attr source  packetReceivedFromUpper
attr title  "packets received from higher layer, vector(packetBytes)"
vector 133  CAIN.eNodeB.x2ppp[0].ppp  txPk:vector(packetBytes)  ETV
attr interpolationmode  none
attr source  packetSentToLower
attr title  "packets transmitted, vector(packetBytes)"
vector 195  CAIN.eNodeB1.x2ppp[0].ppp  rcvdPkFromHL:vector(packetBytes)  ETV
attr interpolationmode  none
attr source  packetReceivedFromUpper
attr title  "packets received from higher layer, vector(packetBytes)"
vector 191  CAIN.eNodeB1.x2ppp[0].ppp  txPk:vector(packetBytes)  ETV
attr interpolationmode  none
attr source  packetSentToLower
attr title  "packets transmitted, vector(packetBytes)"
vector 192  CAIN.eNodeB1.x2ppp[0].ppp  rxPkOk:vector(packetBytes)  ETV
attr interpolationmode  none
attr source  rxPkOk
attr title  "packets received OK, vector(packetBytes)"
vector 196  CAIN.eNodeB1.x2ppp[0].ppp  passedUpPk:vector(packetBytes)  ETV
attr interpolationmode  none
attr source  packetSentToUpper
attr title  "packets passed to higher layer, vector(packetBytes)"
vector 134  CAIN.eNodeB.x2ppp[0].ppp  rxPkOk:vector(packetBytes)  ETV
attr interpolationmode  none
attr source  rxPkOk
attr title  "packets received OK, vector(packetBytes)"
vector 138  CAIN.eNodeB.x2ppp[0].ppp  passedUpPk:vector(packetBytes)  ETV
attr interpolationmode  none
attr source  packetSentToUpper
attr title  "packets passed to higher layer, vector(packetBytes)"
vector 1165  CAIN.eNodeB1.sctp  "Throughput of Association 4"  ETV
vector 1042  CAIN.eNodeB1.sctp  "Peer Rwnd 4"  ETV
vector 1185  CAIN.eNodeB1.sctp  "Fast Recovery State 5:10.0.4.1"  ETV
vector 1212  CAIN.eNodeB1.sctp  "Fast Recovery State 5:10.0.2.2"  ETV
vector 1239  CAIN.eNodeB1.sctp  "Fast Recovery State 5:10.0.5.1"  ETV
vector 1268  CAIN.eNodeB.sctp  "Throughput of Association 3"  ETV
vector 1020  CAIN.eNodeB.sctp  "Peer Rwnd 3"  ETV
vector 1288  CAIN.eNodeB.sctp  "Fast Recovery State 6:10.0.4.2"  ETV
vector 1315  CAIN.eNodeB.sctp  "Fast Recovery State 6:10.0.3.2"  ETV
vector 1342  CAIN.eNodeB.sctp  "Fast Recovery State 6:10.0.5.2"  ETV
vector 1064  CAIN.eNodeB.sctp  "Peer Rwnd 1"  ETV
vector 1369  CAIN.eNodeB.sctp  "Fast Recovery State 1:10.0.4.2"  ETV
vector 1396  CAIN.eNodeB.sctp  "Fast Recovery State 1:10.0.3.2"  ETV
vector 1113  CAIN.eNodeB1.sctp  "Peer Rwnd 2"  ETV
vector 1423  CAIN.eNodeB1.sctp  "Fast Recovery State 2:10.0.4.1"  ETV
vector 1450  CAIN.eNodeB1.sctp  "Fast Recovery State 2:10.0.2.2"  ETV
vector 1195  CAIN.eNodeB1.sctp  "Slow Start Threshold 5:10.0.2.2"  ETV
vector 1196  CAIN.eNodeB1.sctp  "Congestion Window 5:10.0.2.2"  ETV
vector 1197  CAIN.eNodeB1.sctp  "Bandwidth 5:10.0.2.2"  ETV
vector 1200  CAIN.eNodeB1.sctp  "HB Sent 5:10.0.2.2"  ETV
vector 1193  CAIN.eNodeB1.sctp  "RTO 5:10.0.2.2"  ETV
vector 1168  CAIN.eNodeB1.sctp  "Slow Start Threshold 5:10.0.4.1"  ETV
vector 1169  CAIN.eNodeB1.sctp  "Congestion Window 5:10.0.4.1"  ETV
vector 1170  CAIN.eNodeB1.sctp  "Bandwidth 5:10.0.4.1"  ETV
vector 1173  CAIN.eNodeB1.sctp  "HB Sent 5:10.0.4.1"  ETV
vector 1166  CAIN.eNodeB1.sctp  "RTO 5:10.0.4.1"  ETV
vector 1222  CAIN.eNodeB1.sctp  "Slow Start Threshold 5:10.0.5.1"  ETV
vector 1223  CAIN.eNodeB1.sctp  "Congestion Window 5:10.0.5.1"  ETV
vector 1224  CAIN.eNodeB1.sctp  "Bandwidth 5:10.0.5.1"  ETV
vector 1220  CAIN.eNodeB1.sctp  "RTO 5:10.0.5.1"  ETV
vector 1298  CAIN.eNodeB.sctp  "Slow Start Threshold 6:10.0.3.2"  ETV
vector 1299  CAIN.eNodeB.sctp  "Congestion Window 6:10.0.3.2"  ETV
vector 1300  CAIN.eNodeB.sctp  "Bandwidth 6:10.0.3.2"  ETV
vector 1303  CAIN.eNodeB.sctp  "HB Sent 6:10.0.3.2"  ETV
vector 1296  CAIN.eNodeB.sctp  "RTO 6:10.0.3.2"  ETV
vector 1271  CAIN.eNodeB.sctp  "Slow Start Threshold 6:10.0.4.2"  ETV
vector 1272  CAIN.eNodeB.sctp  "Congestion Window 6:10.0.4.2"  ETV
vector 1273  CAIN.eNodeB.sctp  "Bandwidth 6:10.0.4.2"  ETV
vector 1276  CAIN.eNodeB.sctp  "HB Sent 6:10.0.4.2"  ETV
vector 1269  CAIN.eNodeB.sctp  "RTO 6:10.0.4.2"  ETV
vector 1325  CAIN.eNodeB.sctp  "Slow Start Threshold 6:10.0.5.2"  ETV
vector 1326  CAIN.eNodeB.sctp  "Congestion Window 6:10.0.5.2"  ETV
vector 1327  CAIN.eNodeB.sctp  "Bandwidth 6:10.0.5.2"  ETV
vector 1323  CAIN.eNodeB.sctp  "RTO 6:10.0.5.2"  ETV
vector 1076  CAIN.eNodeB.sctp  "HB ACK Sent 1:10.0.5.2"  ETV
vector 1077  CAIN.eNodeB.sctp  "HB Received 1:10.0.5.2"  ETV
vector 1125  CAIN.eNodeB1.sctp  "HB ACK Sent 2:10.0.5.1"  ETV
vector 1126  CAIN.eNodeB1.sctp  "HB Received 2:10.0.5.1"  ETV
vector 1379  CAIN.eNodeB.sctp  "Slow Start Threshold 1:10.0.3.2"  ETV
vector 1380  CAIN.eNodeB.sctp  "Congestion Window 1:10.0.3.2"  ETV
vector 1381  CAIN.eNodeB.sctp  "Bandwidth 1:10.0.3.2"  ETV
vector 1384  CAIN.eNodeB.sctp  "HB Sent 1:10.0.3.2"  ETV
vector 1377  CAIN.eNodeB.sctp  "RTO 1:10.0.3.2"  ETV
vector 1352  CAIN.eNodeB.sctp  "Slow Start Threshold 1:10.0.4.2"  ETV
vector 1353  CAIN.eNodeB.sctp  "Congestion Window 1:10.0.4.2"  ETV
vector 1354  CAIN.eNodeB.sctp  "Bandwidth 1:10.0.4.2"  ETV
vector 1357  CAIN.eNodeB.sctp  "HB Sent 1:10.0.4.2"  ETV
vector 1350  CAIN.eNodeB.sctp  "RTO 1:10.0.4.2"  ETV
vector 1070  CAIN.eNodeB.sctp  "Slow Start Threshold 1:10.0.5.2"  ETV
vector 1071  CAIN.eNodeB.sctp  "Congestion Window 1:10.0.5.2"  ETV
vector 1072  CAIN.eNodeB.sctp  "Bandwidth 1:10.0.5.2"  ETV
vector 1068  CAIN.eNodeB.sctp  "RTO 1:10.0.5.2"  ETV
vector 1433  CAIN.eNodeB1.sctp  "Slow Start Threshold 2:10.0.2.2"  ETV
vector 1434  CAIN.eNodeB1.sctp  "Congestion Window 2:10.0.2.2"  ETV
vector 1435  CAIN.eNodeB1.sctp  "Bandwidth 2:10.0.2.2"  ETV
vector 1438  CAIN.eNodeB1.sctp  "HB Sent 2:10.0.2.2"  ETV
vector 1431  CAIN.eNodeB1.sctp  "RTO 2:10.0.2.2"  ETV
vector 1406  CAIN.eNodeB1.sctp  "Slow Start Threshold 2:10.0.4.1"  ETV
vector 1407  CAIN.eNodeB1.sctp  "Congestion Window 2:10.0.4.1"  ETV
vector 1408  CAIN.eNodeB1.sctp  "Bandwidth 2:10.0.4.1"  ETV
vector 1411  CAIN.eNodeB1.sctp  "HB Sent 2:10.0.4.1"  ETV
vector 1404  CAIN.eNodeB1.sctp  "RTO 2:10.0.4.1"  ETV
vector 1119  CAIN.eNodeB1.sctp  "Slow Start Threshold 2:10.0.5.1"  ETV
vector 1120  CAIN.eNodeB1.sctp  "Congestion Window 2:10.0.5.1"  ETV
vector 1121  CAIN.eNodeB1.sctp  "Bandwidth 2:10.0.5.1"  ETV
vector 1117  CAIN.eNodeB1.sctp  "RTO 2:10.0.5.1"  ETV
vector 1333  CAIN.eNodeB.sctp  "HB ACK Received 6:10.0.5.2"  ETV
vector 1324  CAIN.eNodeB.sctp  "RTT 6:10.0.5.2"  ETV
vector 1230  CAIN.eNodeB1.sctp  "HB ACK Received 5:10.0.5.1"  ETV
vector 1221  CAIN.eNodeB1.sctp  "RTT 5:10.0.5.1"  ETV
vector 1331  CAIN.eNodeB.sctp  "HB ACK Sent 6:10.0.5.2"  ETV
vector 1332  CAIN.eNodeB.sctp  "HB Received 6:10.0.5.2"  ETV
vector 1228  CAIN.eNodeB1.sctp  "HB ACK Sent 5:10.0.5.1"  ETV
vector 1229  CAIN.eNodeB1.sctp  "HB Received 5:10.0.5.1"  ETV
vector 1127  CAIN.eNodeB1.sctp  "HB ACK Received 2:10.0.5.1"  ETV
vector 1118  CAIN.eNodeB1.sctp  "RTT 2:10.0.5.1"  ETV
vector 1078  CAIN.eNodeB.sctp  "HB ACK Received 1:10.0.5.2"  ETV
vector 1069  CAIN.eNodeB.sctp  "RTT 1:10.0.5.2"  ETV
vector 96  CAIN.eNodeB.nic.mac  receivedPacketFromLowerLayer:vector(packetBytes)  ETV
attr interpolationmode  none
attr source  receivedPacketFromLowerLayer
vector 1465  CAIN.eNodeB.sctp  "SendQueue of Association 6"  ETV
vector 1328  CAIN.eNodeB.sctp  "TSN Sent 6:10.0.5.2"  ETV
vector 1335  CAIN.eNodeB.sctp  "Outstanding Bytes 6:10.0.5.2"  ETV
vector 1008  CAIN.eNodeB.sctp  "Outstanding Bytes 3:Total"  ETV
vector 1334  CAIN.eNodeB.sctp  "Queued Sent Bytes 6:10.0.5.2"  ETV
vector 1007  CAIN.eNodeB.sctp  "Queued Sent Bytes 3:Total"  ETV
vector 1123  CAIN.eNodeB1.sctp  "TSN Received 2:10.0.5.1"  ETV
vector 1099  CAIN.eNodeB1.sctp  "Queued Received Bytes 2:Total"  ETV
vector 1095  CAIN.eNodeB1.sctp  "Advertised Receiver Window 2"  ETV
vector 1104  CAIN.eNodeB1.sctp  "Number of Total Gap Blocks Stored 2"  ETV
vector 1105  CAIN.eNodeB1.sctp  "Number of Revokable Gap Blocks Stored 2"  ETV
vector 1106  CAIN.eNodeB1.sctp  "Number of Non-Revokable Gap Blocks Stored 2"  ETV
vector 1107  CAIN.eNodeB1.sctp  "Number of Duplicate TSNs Stored 2"  ETV
vector 1111  CAIN.eNodeB1.sctp  "Length of SACK Sent 2"  ETV
vector 1108  CAIN.eNodeB1.sctp  "Number of Revokable Gap Blocks Sent 2"  ETV
vector 1109  CAIN.eNodeB1.sctp  "Number of Non-Revokable Gap Blocks Sent 2"  ETV
vector 1110  CAIN.eNodeB1.sctp  "Number of Duplicate TSNs Sent 2"  ETV
vector 1115  CAIN.eNodeB1.sctp  "End to End Delay of Association 2"  ETV
vector 199  CAIN.eNodeB1.x2App[0].client  rcvdPk:vector(packetBytes)  ETV
attr interpolationmode  none
attr source  rcvdPk
attr title  "packets received, vector(packetBytes)"
vector 1464  CAIN.eNodeB.sctp  "Number of Gap Blocks in Last SACK of Association 6"  ETV
vector 1009  CAIN.eNodeB.sctp  "Number of Revokable Gap Blocks in SACK 3"  ETV
vector 1010  CAIN.eNodeB.sctp  "Number of Non-Revokable Gap Blocks in SACK 3"  ETV
vector 1345  CAIN.eNodeB.sctp  "TSN Acked CumAck 6:10.0.5.2"  ETV
vector 1311  CAIN.eNodeB.sctp  "Number of Gap Acked Chunks in Last SACK 6:10.0.3.2"  ETV
vector 1312  CAIN.eNodeB.sctp  "Number of Non-Revokable Gap Acked Chunks in Last SACK 6:10.0.3.2"  ETV
vector 1313  CAIN.eNodeB.sctp  "Number of Gap Missed Chunks in Last SACK 6:10.0.3.2"  ETV
vector 1284  CAIN.eNodeB.sctp  "Number of Gap Acked Chunks in Last SACK 6:10.0.4.2"  ETV
vector 1285  CAIN.eNodeB.sctp  "Number of Non-Revokable Gap Acked Chunks in Last SACK 6:10.0.4.2"  ETV
vector 1286  CAIN.eNodeB.sctp  "Number of Gap Missed Chunks in Last SACK 6:10.0.4.2"  ETV
vector 1338  CAIN.eNodeB.sctp  "Number of Gap Acked Chunks in Last SACK 6:10.0.5.2"  ETV
vector 1339  CAIN.eNodeB.sctp  "Number of Non-Revokable Gap Acked Chunks in Last SACK 6:10.0.5.2"  ETV
vector 1340  CAIN.eNodeB.sctp  "Number of Gap Missed Chunks in Last SACK 6:10.0.5.2"  ETV
vector 1019  CAIN.eNodeB.sctp  "Arwnd in Last SACK 3"  ETV
vector 1347  CAIN.eNodeB.sctp  "TSN PseudoCumAck 6:10.0.5.2"  ETV
vector 1348  CAIN.eNodeB.sctp  "TSN RTXPseudoCumAck 6:10.0.5.2"  ETV
vector 1341  CAIN.eNodeB.sctp  "Partial Bytes Acked 6:10.0.5.2"  ETV
vector 1493  CAIN.ueD2DTx[20].tcp  tcpRcvQueueBytes  ETV
vector 1480  CAIN.ueD2DTx[20].tcp  "advertised window"  ETV
vector 1479  CAIN.ueD2DTx[20].tcp  "receive window"  ETV
vector 1482  CAIN.ueD2DTx[20].tcp  "sent ack"  ETV
vector 845  CAIN.ueD2DTx[20].nic.pdcpRrc  receivedPacketFromUpperLayer:vector(packetBytes)  ETV
attr interpolationmode  none
attr source  receivedPacketFromUpperLayer
vector 848  CAIN.ueD2DTx[20].nic.pdcpRrc  sentPacketToLowerLayer:vector(packetBytes)  ETV
attr interpolationmode  none
attr source  sentPacketToLowerLayer
vector 849  CAIN.ueD2DTx[20].nic.mac  receivedPacketFromUpperLayer:vector(packetBytes)  ETV
attr interpolationmode  none
attr source  receivedPacketFromUpperLayer
vector 858  CAIN.ueD2DTx[20].nic.mac  CainMessageSent:vector  ETV
attr interpolationmode  none
attr title  "# of Sent CAIN message, vector"
vector 852  CAIN.ueD2DTx[20].nic.mac  sentPacketToLowerLayer:vector(packetBytes)  ETV
attr interpolationmode  none
attr source  sentPacketToLowerLayer
vector 402  CAIN.ueD2DTx[6].nic.mac  receivedPacketFromLowerLayer:vector(packetBytes)  ETV
attr interpolationmode  none
attr source  receivedPacketFromLowerLayer
vector 404  CAIN.ueD2DTx[6].nic.mac  sentPacketToLowerLayer:vector(packetBytes)  ETV
attr interpolationmode  none
attr source  sentPacketToLowerLayer
vector 111  CAIN.eNodeB.nic.mac  racpkt:vector  ETV
attr interpolationmode  none
attr title  "eNB received racpkt message, vector"
vector 112  CAIN.eNodeB.nic.mac  racDistanceSignal:vector  ETV
attr interpolationmode  none
attr title  "Rac distance to enb, vector"
vector 113  CAIN.eNodeB.nic.mac  racServedDevsSignal:vector  ETV
attr interpolationmode  none
attr title  "# of devices served on rac arriavall, vector"
vector 106  CAIN.eNodeB.nic.mac  DistanceSignal:vector  ETV
attr interpolationmode  none
attr title  "Distance to enb, vector"
vector 100  CAIN.eNodeB.nic.mac  CainMessage:vector  ETV
attr interpolationmode  none
attr title  "eNB received CAIN message, vector"
vector 98  CAIN.eNodeB.nic.mac  sentPacketToLowerLayer:vector(packetBytes)  ETV
attr interpolationmode  none
attr source  sentPacketToLowerLayer
vector 1517  CAIN.ueD2DTx[12].tcp  tcpRcvQueueBytes  ETV
vector 1504  CAIN.ueD2DTx[12].tcp  "advertised window"  ETV
vector 1503  CAIN.ueD2DTx[12].tcp  "receive window"  ETV
vector 1506  CAIN.ueD2DTx[12].tcp  "sent ack"  ETV
vector 589  CAIN.ueD2DTx[12].nic.pdcpRrc  receivedPacketFromUpperLayer:vector(packetBytes)  ETV
attr interpolationmode  none
attr source  receivedPacketFromUpperLayer
vector 592  CAIN.ueD2DTx[12].nic.pdcpRrc  sentPacketToLowerLayer:vector(packetBytes)  ETV
attr interpolationmode  none
attr source  sentPacketToLowerLayer
vector 593  CAIN.ueD2DTx[12].nic.mac  receivedPacketFromUpperLayer:vector(packetBytes)  ETV
attr interpolationmode  none
attr source  receivedPacketFromUpperLayer
vector 603  CAIN.ueD2DTx[12].nic.mac  CainHopMessageSent:vector  ETV
attr interpolationmode  none
attr title  "# of Sent CAIN hop message, vector"
vector 596  CAIN.ueD2DTx[12].nic.mac  sentPacketToLowerLayer:vector(packetBytes)  ETV
attr interpolationmode  none
attr source  sentPacketToLowerLayer
vector 408  CAIN.ueD2DTx[6].nic.mac  DropedCainMessage:vector  ETV
attr interpolationmode  none
attr title  "Droped CAIN message due to RB not available, vector"
vector 338  CAIN.ueD2DTx[4].nic.mac  receivedPacketFromLowerLayer:vector(packetBytes)  ETV
attr interpolationmode  none
attr source  receivedPacketFromLowerLayer
vector 340  CAIN.ueD2DTx[4].nic.mac  sentPacketToLowerLayer:vector(packetBytes)  ETV
attr interpolationmode  none
attr source  sentPacketToLowerLayer
vector 690  CAIN.ueD2DTx[15].nic.mac  receivedPacketFromLowerLayer:vector(packetBytes)  ETV
attr interpolationmode  none
attr source  receivedPacketFromLowerLayer
vector 692  CAIN.ueD2DTx[15].nic.mac  sentPacketToLowerLayer:vector(packetBytes)  ETV
attr interpolationmode  none
attr source  sentPacketToLowerLayer
vector 1541  CAIN.ueD2DTx[23].tcp  tcpRcvQueueBytes  ETV
vector 1528  CAIN.ueD2DTx[23].tcp  "advertised window"  ETV
vector 1527  CAIN.ueD2DTx[23].tcp  "receive window"  ETV
vector 1530  CAIN.ueD2DTx[23].tcp  "sent ack"  ETV
vector 941  CAIN.ueD2DTx[23].nic.pdcpRrc  receivedPacketFromUpperLayer:vector(packetBytes)  ETV
attr interpolationmode  none
attr source  receivedPacketFromUpperLayer
vector 944  CAIN.ueD2DTx[23].nic.pdcpRrc  sentPacketToLowerLayer:vector(packetBytes)  ETV
attr interpolationmode  none
attr source  sentPacketToLowerLayer
vector 945  CAIN.ueD2DTx[23].nic.mac  receivedPacketFromUpperLayer:vector(packetBytes)  ETV
attr interpolationmode  none
attr source  receivedPacketFromUpperLayer
vector 1565  CAIN.ueD2DTx[10].tcp  tcpRcvQueueBytes  ETV
vector 1552  CAIN.ueD2DTx[10].tcp  "advertised window"  ETV
vector 1551  CAIN.ueD2DTx[10].tcp  "receive window"  ETV
vector 1554  CAIN.ueD2DTx[10].tcp  "sent ack"  ETV
vector 525  CAIN.ueD2DTx[10].nic.pdcpRrc  receivedPacketFromUpperLayer:vector(packetBytes)  ETV
attr interpolationmode  none
attr source  receivedPacketFromUpperLayer
vector 528  CAIN.ueD2DTx[10].nic.pdcpRrc  sentPacketToLowerLayer:vector(packetBytes)  ETV
attr interpolationmode  none
attr source  sentPacketToLowerLayer
vector 529  CAIN.ueD2DTx[10].nic.mac  receivedPacketFromUpperLayer:vector(packetBytes)  ETV
attr interpolationmode  none
attr source  receivedPacketFromUpperLayer
vector 538  CAIN.ueD2DTx[10].nic.mac  CainMessageSent:vector  ETV
attr interpolationmode  none
attr title  "# of Sent CAIN message, vector"
vector 532  CAIN.ueD2DTx[10].nic.mac  sentPacketToLowerLayer:vector(packetBytes)  ETV
attr interpolationmode  none
attr source  sentPacketToLowerLayer
vector 955  CAIN.ueD2DTx[23].nic.mac  CainHopMessageSent:vector  ETV
attr interpolationmode  none
attr title  "# of Sent CAIN hop message, vector"
vector 948  CAIN.ueD2DTx[23].nic.mac  sentPacketToLowerLayer:vector(packetBytes)  ETV
attr interpolationmode  none
attr source  sentPacketToLowerLayer
vector 101  CAIN.eNodeB.nic.mac  CainHopMessage:vector  ETV
attr interpolationmode  none
attr title  "eNB received CAIN hop message, vector"
vector 1589  CAIN.ueD2DTx[22].tcp  tcpRcvQueueBytes  ETV
vector 1576  CAIN.ueD2DTx[22].tcp  "advertised window"  ETV
vector 1575  CAIN.ueD2DTx[22].tcp  "receive window"  ETV
vector 1578  CAIN.ueD2DTx[22].tcp  "sent ack"  ETV
vector 909  CAIN.ueD2DTx[22].nic.pdcpRrc  receivedPacketFromUpperLayer:vector(packetBytes)  ETV
attr interpolationmode  none
attr source  receivedPacketFromUpperLayer
vector 912  CAIN.ueD2DTx[22].nic.pdcpRrc  sentPacketToLowerLayer:vector(packetBytes)  ETV
attr interpolationmode  none
attr source  sentPacketToLowerLayer
vector 913  CAIN.ueD2DTx[22].nic.mac  receivedPacketFromUpperLayer:vector(packetBytes)  ETV
attr interpolationmode  none
attr source  receivedPacketFromUpperLayer
vector 922  CAIN.ueD2DTx[22].nic.mac  CainMessageSent:vector  ETV
attr interpolationmode  none
attr title  "# of Sent CAIN message, vector"
vector 916  CAIN.ueD2DTx[22].nic.mac  sentPacketToLowerLayer:vector(packetBytes)  ETV
attr interpolationmode  none
attr source  sentPacketToLowerLayer
vector 434  CAIN.ueD2DTx[7].nic.mac  receivedPacketFromLowerLayer:vector(packetBytes)  ETV
attr interpolationmode  none
attr source  receivedPacketFromLowerLayer
vector 436  CAIN.ueD2DTx[7].nic.mac  sentPacketToLowerLayer:vector(packetBytes)  ETV
attr interpolationmode  none
attr source  sentPacketToLowerLayer
vector 697  CAIN.ueD2DTx[15].nic.mac  DropedHopMessage:vector  ETV
attr interpolationmode  none
attr title  "Droped Hop CAIN message due to RB not available, vector"
vector 818  CAIN.ueD2DTx[19].nic.mac  receivedPacketFromLowerLayer:vector(packetBytes)  ETV
attr interpolationmode  none
attr source  receivedPacketFromLowerLayer
vector 820  CAIN.ueD2DTx[19].nic.mac  sentPacketToLowerLayer:vector(packetBytes)  ETV
attr interpolationmode  none
attr source  sentPacketToLowerLayer
vector 1613  CAIN.ueD2DTx[3].tcp  tcpRcvQueueBytes  ETV
vector 1600  CAIN.ueD2DTx[3].tcp  "advertised window"  ETV
vector 1599  CAIN.ueD2DTx[3].tcp  "receive window"  ETV
vector 1602  CAIN.ueD2DTx[3].tcp  "sent ack"  ETV
vector 301  CAIN.ueD2DTx[3].nic.pdcpRrc  receivedPacketFromUpperLayer:vector(packetBytes)  ETV
attr interpolationmode  none
attr source  receivedPacketFromUpperLayer
vector 304  CAIN.ueD2DTx[3].nic.pdcpRrc  sentPacketToLowerLayer:vector(packetBytes)  ETV
attr interpolationmode  none
attr source  sentPacketToLowerLayer
vector 305  CAIN.ueD2DTx[3].nic.mac  receivedPacketFromUpperLayer:vector(packetBytes)  ETV
attr interpolationmode  none
attr source  receivedPacketFromUpperLayer
vector 315  CAIN.ueD2DTx[3].nic.mac  CainHopMessageSent:vector  ETV
attr interpolationmode  none
attr title  "# of Sent CAIN hop message, vector"
vector 308  CAIN.ueD2DTx[3].nic.mac  sentPacketToLowerLayer:vector(packetBytes)  ETV
attr interpolationmode  none
attr source  sentPacketToLowerLayer
vector 440  CAIN.ueD2DTx[7].nic.mac  DropedCainMessage:vector  ETV
attr interpolationmode  none
attr title  "Droped CAIN message due to RB not available, vector"
vector 914  CAIN.ueD2DTx[22].nic.mac  receivedPacketFromLowerLayer:vector(packetBytes)  ETV
attr interpolationmode  none
attr source  receivedPacketFromLowerLayer
vector 825  CAIN.ueD2DTx[19].nic.mac  DropedHopMessage:vector  ETV
attr interpolationmode  none
attr title  "Droped Hop CAIN message due to RB not available, vector"
vector 1637  CAIN.ueD2DTx[19].tcp  tcpRcvQueueBytes  ETV
vector 1624  CAIN.ueD2DTx[19].tcp  "advertised window"  ETV
vector 1623  CAIN.ueD2DTx[19].tcp  "receive window"  ETV
vector 1626  CAIN.ueD2DTx[19].tcp  "sent ack"  ETV
vector 813  CAIN.ueD2DTx[19].nic.pdcpRrc  receivedPacketFromUpperLayer:vector(packetBytes)  ETV
attr interpolationmode  none
attr source  receivedPacketFromUpperLayer
vector 816  CAIN.ueD2DTx[19].nic.pdcpRrc  sentPacketToLowerLayer:vector(packetBytes)  ETV
attr interpolationmode  none
attr source  sentPacketToLowerLayer
vector 817  CAIN.ueD2DTx[19].nic.mac  receivedPacketFromUpperLayer:vector(packetBytes)  ETV
attr interpolationmode  none
attr source  receivedPacketFromUpperLayer
vector 409  CAIN.ueD2DTx[6].nic.mac  DropedHopMessage:vector  ETV
attr interpolationmode  none
attr title  "Droped Hop CAIN message due to RB not available, vector"
vector 1661  CAIN.ueD2DTx[16].tcp  tcpRcvQueueBytes  ETV
vector 1648  CAIN.ueD2DTx[16].tcp  "advertised window"  ETV
vector 1647  CAIN.ueD2DTx[16].tcp  "receive window"  ETV
vector 1650  CAIN.ueD2DTx[16].tcp  "sent ack"  ETV
vector 717  CAIN.ueD2DTx[16].nic.pdcpRrc  receivedPacketFromUpperLayer:vector(packetBytes)  ETV
attr interpolationmode  none
attr source  receivedPacketFromUpperLayer
vector 720  CAIN.ueD2DTx[16].nic.pdcpRrc  sentPacketToLowerLayer:vector(packetBytes)  ETV
attr interpolationmode  none
attr source  sentPacketToLowerLayer
vector 721  CAIN.ueD2DTx[16].nic.mac  receivedPacketFromUpperLayer:vector(packetBytes)  ETV
attr interpolationmode  none
attr source  receivedPacketFromUpperLayer
vector 730  CAIN.ueD2DTx[16].nic.mac  CainMessageSent:vector  ETV
attr interpolationmode  none
attr title  "# of Sent CAIN message, vector"
vector 724  CAIN.ueD2DTx[16].nic.mac  sentPacketToLowerLayer:vector(packetBytes)  ETV
attr interpolationmode  none
attr source  sentPacketToLowerLayer
vector 819  CAIN.ueD2DTx[19].nic.mac  sentPacketToUpperLayer:vector(packetBytes)  ETV
attr interpolationmode  none
attr source  sentPacketToUpperLayer
vector 109  CAIN.eNodeB.nic.mac  ServedHopDevs:vector  ETV
attr interpolationmode  none
attr title  "# of devices served on hop forwarding, vector"
vector 115  CAIN.eNodeB.nic.phy  averageCqiUlvect:vector  ETV
attr source  averageCqiUlvect
attr title  "Average Cqi reported in UL, vector"
attr unit  cqi
vector 1685  CAIN.ueD2DTx[24].tcp  tcpRcvQueueBytes  ETV
vector 1672  CAIN.ueD2DTx[24].tcp  "advertised window"  ETV
vector 1671  CAIN.ueD2DTx[24].tcp  "receive window"  ETV
vector 1674  CAIN.ueD2DTx[24].tcp  "sent ack"  ETV
vector 973  CAIN.ueD2DTx[24].nic.pdcpRrc  receivedPacketFromUpperLayer:vector(packetBytes)  ETV
attr interpolationmode  none
attr source  receivedPacketFromUpperLayer
vector 976  CAIN.ueD2DTx[24].nic.pdcpRrc  sentPacketToLowerLayer:vector(packetBytes)  ETV
attr interpolationmode  none
attr source  sentPacketToLowerLayer
vector 977  CAIN.ueD2DTx[24].nic.mac  receivedPacketFromUpperLayer:vector(packetBytes)  ETV
attr interpolationmode  none
attr source  receivedPacketFromUpperLayer
vector 980  CAIN.ueD2DTx[24].nic.mac  sentPacketToLowerLayer:vector(packetBytes)  ETV
attr interpolationmode  none
attr source  sentPacketToLowerLayer
vector 97  CAIN.eNodeB.nic.mac  sentPacketToUpperLayer:vector(packetBytes)  ETV
attr interpolationmode  none
attr source  sentPacketToUpperLayer
vector 99  CAIN.eNodeB.nic.mac  measuredItbs:vector  ETV
attr source  measuredItbs
attr title  "TBS index, vector"
attr unit  ""
vector 92  CAIN.eNodeB.nic.pdcpRrc  receivedPacketFromLowerLayer:vector(packetBytes)  ETV
attr interpolationmode  none
attr source  receivedPacketFromLowerLayer
vector 93  CAIN.eNodeB.nic.pdcpRrc  sentPacketToUpperLayer:vector(packetBytes)  ETV
attr interpolationmode  none
attr source  sentPacketToUpperLayer
vector 86  CAIN.eNodeB.udp  sentPk:vector(packetBytes)  ETV
attr interpolationmode  none
attr source  sentPk
attr title  "packets sent, vector(packetBytes)"
vector 145  CAIN.eNodeB1.udp  rcvdPk:vector(packetBytes)  ETV
attr interpolationmode  none
attr source  rcvdPk
attr title  "packets received, vector(packetBytes)"
vector 146  CAIN.eNodeB1.udp  passedUpPk:vector(count)  ETV
attr interpolationmode  none
attr title  "packets passed up, vector(count)"
vector 1709  CAIN.ueD2DTx[5].tcp  tcpRcvQueueBytes  ETV
vector 1696  CAIN.ueD2DTx[5].tcp  "advertised window"  ETV
vector 1695  CAIN.ueD2DTx[5].tcp  "receive window"  ETV
vector 1698  CAIN.ueD2DTx[5].tcp  "sent ack"  ETV
vector 365  CAIN.ueD2DTx[5].nic.pdcpRrc  receivedPacketFromUpperLayer:vector(packetBytes)  ETV
attr interpolationmode  none
attr source  receivedPacketFromUpperLayer
vector 368  CAIN.ueD2DTx[5].nic.pdcpRrc  sentPacketToLowerLayer:vector(packetBytes)  ETV
attr interpolationmode  none
attr source  sentPacketToLowerLayer
vector 369  CAIN.ueD2DTx[5].nic.mac  receivedPacketFromUpperLayer:vector(packetBytes)  ETV
attr interpolationmode  none
attr source  receivedPacketFromUpperLayer
vector 379  CAIN.ueD2DTx[5].nic.mac  CainHopMessageSent:vector  ETV
attr interpolationmode  none
attr title  "# of Sent CAIN hop message, vector"
vector 372  CAIN.ueD2DTx[5].nic.mac  sentPacketToLowerLayer:vector(packetBytes)  ETV
attr interpolationmode  none
attr source  sentPacketToLowerLayer
vector 978  CAIN.ueD2DTx[24].nic.mac  receivedPacketFromLowerLayer:vector(packetBytes)  ETV
attr interpolationmode  none
attr source  receivedPacketFromLowerLayer
vector 722  CAIN.ueD2DTx[16].nic.mac  receivedPacketFromLowerLayer:vector(packetBytes)  ETV
attr interpolationmode  none
attr source  receivedPacketFromLowerLayer
vector 979  CAIN.ueD2DTx[24].nic.mac  sentPacketToUpperLayer:vector(packetBytes)  ETV
attr interpolationmode  none
attr source  sentPacketToUpperLayer
vector 441  CAIN.ueD2DTx[7].nic.mac  DropedHopMessage:vector  ETV
attr interpolationmode  none
attr title  "Droped Hop CAIN message due to RB not available, vector"
vector 1733  CAIN.ueD2DTx[13].tcp  tcpRcvQueueBytes  ETV
vector 1720  CAIN.ueD2DTx[13].tcp  "advertised window"  ETV
vector 1719  CAIN.ueD2DTx[13].tcp  "receive window"  ETV
vector 1722  CAIN.ueD2DTx[13].tcp  "sent ack"  ETV
vector 621  CAIN.ueD2DTx[13].nic.pdcpRrc  receivedPacketFromUpperLayer:vector(packetBytes)  ETV
attr interpolationmode  none
attr source  receivedPacketFromUpperLayer
vector 624  CAIN.ueD2DTx[13].nic.pdcpRrc  sentPacketToLowerLayer:vector(packetBytes)  ETV
attr interpolationmode  none
attr source  sentPacketToLowerLayer
vector 625  CAIN.ueD2DTx[13].nic.mac  receivedPacketFromUpperLayer:vector(packetBytes)  ETV
attr interpolationmode  none
attr source  receivedPacketFromUpperLayer
vector 635  CAIN.ueD2DTx[13].nic.mac  CainHopMessageSent:vector  ETV
attr interpolationmode  none
attr title  "# of Sent CAIN hop message, vector"
vector 628  CAIN.ueD2DTx[13].nic.mac  sentPacketToLowerLayer:vector(packetBytes)  ETV
attr interpolationmode  none
attr source  sentPacketToLowerLayer
vector 1757  CAIN.ueD2DTx[11].tcp  tcpRcvQueueBytes  ETV
vector 1744  CAIN.ueD2DTx[11].tcp  "advertised window"  ETV
vector 1743  CAIN.ueD2DTx[11].tcp  "receive window"  ETV
vector 1746  CAIN.ueD2DTx[11].tcp  "sent ack"  ETV
vector 557  CAIN.ueD2DTx[11].nic.pdcpRrc  receivedPacketFromUpperLayer:vector(packetBytes)  ETV
attr interpolationmode  none
attr source  receivedPacketFromUpperLayer
vector 560  CAIN.ueD2DTx[11].nic.pdcpRrc  sentPacketToLowerLayer:vector(packetBytes)  ETV
attr interpolationmode  none
attr source  sentPacketToLowerLayer
vector 561  CAIN.ueD2DTx[11].nic.mac  receivedPacketFromUpperLayer:vector(packetBytes)  ETV
attr interpolationmode  none
attr source  receivedPacketFromUpperLayer
vector 1781  CAIN.ueD2DTx[8].tcp  tcpRcvQueueBytes  ETV
vector 1768  CAIN.ueD2DTx[8].tcp  "advertised window"  ETV
vector 1767  CAIN.ueD2DTx[8].tcp  "receive window"  ETV
vector 1770  CAIN.ueD2DTx[8].tcp  "sent ack"  ETV
vector 461  CAIN.ueD2DTx[8].nic.pdcpRrc  receivedPacketFromUpperLayer:vector(packetBytes)  ETV
attr interpolationmode  none
attr source  receivedPacketFromUpperLayer
vector 464  CAIN.ueD2DTx[8].nic.pdcpRrc  sentPacketToLowerLayer:vector(packetBytes)  ETV
attr interpolationmode  none
attr source  sentPacketToLowerLayer
vector 465  CAIN.ueD2DTx[8].nic.mac  receivedPacketFromUpperLayer:vector(packetBytes)  ETV
attr interpolationmode  none
attr source  receivedPacketFromUpperLayer
vector 475  CAIN.ueD2DTx[8].nic.mac  CainHopMessageSent:vector  ETV
attr interpolationmode  none
attr title  "# of Sent CAIN hop message, vector"
vector 468  CAIN.ueD2DTx[8].nic.mac  sentPacketToLowerLayer:vector(packetBytes)  ETV
attr interpolationmode  none
attr source  sentPacketToLowerLayer
vector 564  CAIN.ueD2DTx[11].nic.mac  sentPacketToLowerLayer:vector(packetBytes)  ETV
attr interpolationmode  none
attr source  sentPacketToLowerLayer
vector 1805  CAIN.ueD2DTx[14].tcp  tcpRcvQueueBytes  ETV
vector 1792  CAIN.ueD2DTx[14].tcp  "advertised window"  ETV
vector 1791  CAIN.ueD2DTx[14].tcp  "receive window"  ETV
vector 1794  CAIN.ueD2DTx[14].tcp  "sent ack"  ETV
vector 653  CAIN.ueD2DTx[14].nic.pdcpRrc  receivedPacketFromUpperLayer:vector(packetBytes)  ETV
attr interpolationmode  none
attr source  receivedPacketFromUpperLayer
vector 656  CAIN.ueD2DTx[14].nic.pdcpRrc  sentPacketToLowerLayer:vector(packetBytes)  ETV
attr interpolationmode  none
attr source  sentPacketToLowerLayer
vector 657  CAIN.ueD2DTx[14].nic.mac  receivedPacketFromUpperLayer:vector(packetBytes)  ETV
attr interpolationmode  none
attr source  receivedPacketFromUpperLayer
vector 667  CAIN.ueD2DTx[14].nic.mac  CainHopMessageSent:vector  ETV
attr interpolationmode  none
attr title  "# of Sent CAIN hop message, vector"
vector 660  CAIN.ueD2DTx[14].nic.mac  sentPacketToLowerLayer:vector(packetBytes)  ETV
attr interpolationmode  none
attr source  sentPacketToLowerLayer
vector 562  CAIN.ueD2DTx[11].nic.mac  receivedPacketFromLowerLayer:vector(packetBytes)  ETV
attr interpolationmode  none
attr source  receivedPacketFromLowerLayer
vector 149  CAIN.eNodeB1.nic.pdcpRrc  receivedPacketFromUpperLayer:vector(packetBytes)  ETV
attr interpolationmode  none
attr source  receivedPacketFromUpperLayer
vector 152  CAIN.eNodeB1.nic.pdcpRrc  sentPacketToLowerLayer:vector(packetBytes)  ETV
attr interpolationmode  none
attr source  sentPacketToLowerLayer
vector 1461  CAIN.eNodeB1.sctp  "SendQueue of Association 5"  ETV
vector 1225  CAIN.eNodeB1.sctp  "TSN Sent 5:10.0.5.1"  ETV
vector 1232  CAIN.eNodeB1.sctp  "Outstanding Bytes 5:10.0.5.1"  ETV
vector 1030  CAIN.eNodeB1.sctp  "Outstanding Bytes 4:Total"  ETV
vector 1231  CAIN.eNodeB1.sctp  "Queued Sent Bytes 5:10.0.5.1"  ETV
vector 1029  CAIN.eNodeB1.sctp  "Queued Sent Bytes 4:Total"  ETV
vector 153  CAIN.eNodeB1.nic.mac  receivedPacketFromUpperLayer:vector(packetBytes)  ETV
attr interpolationmode  none
attr source  receivedPacketFromUpperLayer
vector 1074  CAIN.eNodeB.sctp  "TSN Received 1:10.0.5.2"  ETV
vector 1050  CAIN.eNodeB.sctp  "Queued Received Bytes 1:Total"  ETV
vector 1046  CAIN.eNodeB.sctp  "Advertised Receiver Window 1"  ETV
vector 1055  CAIN.eNodeB.sctp  "Number of Total Gap Blocks Stored 1"  ETV
vector 1056  CAIN.eNodeB.sctp  "Number of Revokable Gap Blocks Stored 1"  ETV
vector 1057  CAIN.eNodeB.sctp  "Number of Non-Revokable Gap Blocks Stored 1"  ETV
vector 1058  CAIN.eNodeB.sctp  "Number of Duplicate TSNs Stored 1"  ETV
vector 1062  CAIN.eNodeB.sctp  "Length of SACK Sent 1"  ETV
vector 1059  CAIN.eNodeB.sctp  "Number of Revokable Gap Blocks Sent 1"  ETV
vector 1060  CAIN.eNodeB.sctp  "Number of Non-Revokable Gap Blocks Sent 1"  ETV
vector 1061  CAIN.eNodeB.sctp  "Number of Duplicate TSNs Sent 1"  ETV
vector 1066  CAIN.eNodeB.sctp  "End to End Delay of Association 1"  ETV
vector 141  CAIN.eNodeB.x2App[0].client  rcvdPk:vector(packetBytes)  ETV
attr interpolationmode  none
attr source  rcvdPk
attr title  "packets received, vector(packetBytes)"
vector 1460  CAIN.eNodeB1.sctp  "Number of Gap Blocks in Last SACK of Association 5"  ETV
vector 1031  CAIN.eNodeB1.sctp  "Number of Revokable Gap Blocks in SACK 4"  ETV
vector 1032  CAIN.eNodeB1.sctp  "Number of Non-Revokable Gap Blocks in SACK 4"  ETV
vector 1242  CAIN.eNodeB1.sctp  "TSN Acked CumAck 5:10.0.5.1"  ETV
vector 1208  CAIN.eNodeB1.sctp  "Number of Gap Acked Chunks in Last SACK 5:10.0.2.2"  ETV
vector 1209  CAIN.eNodeB1.sctp  "Number of Non-Revokable Gap Acked Chunks in Last SACK 5:10.0.2.2"  ETV
vector 1210  CAIN.eNodeB1.sctp  "Number of Gap Missed Chunks in Last SACK 5:10.0.2.2"  ETV
vector 1181  CAIN.eNodeB1.sctp  "Number of Gap Acked Chunks in Last SACK 5:10.0.4.1"  ETV
vector 1182  CAIN.eNodeB1.sctp  "Number of Non-Revokable Gap Acked Chunks in Last SACK 5:10.0.4.1"  ETV
vector 1183  CAIN.eNodeB1.sctp  "Number of Gap Missed Chunks in Last SACK 5:10.0.4.1"  ETV
vector 1235  CAIN.eNodeB1.sctp  "Number of Gap Acked Chunks in Last SACK 5:10.0.5.1"  ETV
vector 1236  CAIN.eNodeB1.sctp  "Number of Non-Revokable Gap Acked Chunks in Last SACK 5:10.0.5.1"  ETV
vector 1237  CAIN.eNodeB1.sctp  "Number of Gap Missed Chunks in Last SACK 5:10.0.5.1"  ETV
vector 1041  CAIN.eNodeB1.sctp  "Arwnd in Last SACK 4"  ETV
vector 1244  CAIN.eNodeB1.sctp  "TSN PseudoCumAck 5:10.0.5.1"  ETV
vector 1245  CAIN.eNodeB1.sctp  "TSN RTXPseudoCumAck 5:10.0.5.1"  ETV
vector 1238  CAIN.eNodeB1.sctp  "Partial Bytes Acked 5:10.0.5.1"  ETV
vector 563  CAIN.ueD2DTx[11].nic.mac  sentPacketToUpperLayer:vector(packetBytes)  ETV
attr interpolationmode  none
attr source  sentPacketToUpperLayer
vector 1829  CAIN.ueD2DTx[7].tcp  tcpRcvQueueBytes  ETV
vector 1816  CAIN.ueD2DTx[7].tcp  "advertised window"  ETV
vector 1815  CAIN.ueD2DTx[7].tcp  "receive window"  ETV
vector 1818  CAIN.ueD2DTx[7].tcp  "sent ack"  ETV
vector 429  CAIN.ueD2DTx[7].nic.pdcpRrc  receivedPacketFromUpperLayer:vector(packetBytes)  ETV
attr interpolationmode  none
attr source  receivedPacketFromUpperLayer
vector 432  CAIN.ueD2DTx[7].nic.pdcpRrc  sentPacketToLowerLayer:vector(packetBytes)  ETV
attr interpolationmode  none
attr source  sentPacketToLowerLayer
vector 433  CAIN.ueD2DTx[7].nic.mac  receivedPacketFromUpperLayer:vector(packetBytes)  ETV
attr interpolationmode  none
attr source  receivedPacketFromUpperLayer
vector 1853  CAIN.ueD2DTx[2].tcp  tcpRcvQueueBytes  ETV
vector 1840  CAIN.ueD2DTx[2].tcp  "advertised window"  ETV
vector 1839  CAIN.ueD2DTx[2].tcp  "receive window"  ETV
vector 1842  CAIN.ueD2DTx[2].tcp  "sent ack"  ETV
vector 269  CAIN.ueD2DTx[2].nic.pdcpRrc  receivedPacketFromUpperLayer:vector(packetBytes)  ETV
attr interpolationmode  none
attr source  receivedPacketFromUpperLayer
vector 272  CAIN.ueD2DTx[2].nic.pdcpRrc  sentPacketToLowerLayer:vector(packetBytes)  ETV
attr interpolationmode  none
attr source  sentPacketToLowerLayer
vector 273  CAIN.ueD2DTx[2].nic.mac  receivedPacketFromUpperLayer:vector(packetBytes)  ETV
attr interpolationmode  none
attr source  receivedPacketFromUpperLayer
vector 283  CAIN.ueD2DTx[2].nic.mac  CainHopMessageSent:vector  ETV
attr interpolationmode  none
attr title  "# of Sent CAIN hop message, vector"
vector 276  CAIN.ueD2DTx[2].nic.mac  sentPacketToLowerLayer:vector(packetBytes)  ETV
attr interpolationmode  none
attr source  sentPacketToLowerLayer
vector 154  CAIN.eNodeB1.nic.mac  receivedPacketFromLowerLayer:vector(packetBytes)  ETV
attr interpolationmode  none
attr source  receivedPacketFromLowerLayer
vector 435  CAIN.ueD2DTx[7].nic.mac  sentPacketToUpperLayer:vector(packetBytes)  ETV
attr interpolationmode  none
attr source  sentPacketToUpperLayer
vector 1877  CAIN.ueD2DTx[1].tcp  tcpRcvQueueBytes  ETV
vector 1864  CAIN.ueD2DTx[1].tcp  "advertised window"  ETV
vector 1863  CAIN.ueD2DTx[1].tcp  "receive window"  ETV
vector 1866  CAIN.ueD2DTx[1].tcp  "sent ack"  ETV
vector 237  CAIN.ueD2DTx[1].nic.pdcpRrc  receivedPacketFromUpperLayer:vector(packetBytes)  ETV
attr interpolationmode  none
attr source  receivedPacketFromUpperLayer
vector 240  CAIN.ueD2DTx[1].nic.pdcpRrc  sentPacketToLowerLayer:vector(packetBytes)  ETV
attr interpolationmode  none
attr source  sentPacketToLowerLayer
vector 241  CAIN.ueD2DTx[1].nic.mac  receivedPacketFromUpperLayer:vector(packetBytes)  ETV
attr interpolationmode  none
attr source  receivedPacketFromUpperLayer
vector 244  CAIN.ueD2DTx[1].nic.mac  sentPacketToLowerLayer:vector(packetBytes)  ETV
attr interpolationmode  none
attr source  sentPacketToLowerLayer
vector 108  CAIN.eNodeB.nic.mac  ServedDevs:vector  ETV
attr interpolationmode  none
attr title  "# of devices served on cain forwarding, vector"
vector 117  CAIN.eNodeB.pppIf.queue  rcvdPk:vector(packetBytes)  ETV
attr interpolationmode  none
attr title  "received packets, vector(packetBytes)"
vector 119  CAIN.eNodeB.pppIf.queue  queueingTime:vector  ETV
attr interpolationmode  none
attr title  "queueing time, vector"
vector 126  CAIN.eNodeB.pppIf.ppp  rcvdPkFromHL:vector(packetBytes)  ETV
attr interpolationmode  none
attr source  packetReceivedFromUpper
attr title  "packets received from higher layer, vector(packetBytes)"
vector 122  CAIN.eNodeB.pppIf.ppp  txPk:vector(packetBytes)  ETV
attr interpolationmode  none
attr source  packetSentToLower
attr title  "packets transmitted, vector(packetBytes)"
vector 539  CAIN.ueD2DTx[10].nic.mac  CainHopMessageSent:vector  ETV
attr interpolationmode  none
attr title  "# of Sent CAIN hop message, vector"
vector 731  CAIN.ueD2DTx[16].nic.mac  CainHopMessageSent:vector  ETV
attr interpolationmode  none
attr title  "# of Sent CAIN hop message, vector"
vector 169  CAIN.eNodeB1.nic.mac  racpkt:vector  ETV
attr interpolationmode  none
attr title  "eNB received racpkt message, vector"
vector 170  CAIN.eNodeB1.nic.mac  racDistanceSignal:vector  ETV
attr interpolationmode  none
attr title  "Rac distance to enb, vector"
vector 171  CAIN.eNodeB1.nic.mac  racServedDevsSignal:vector  ETV
attr interpolationmode  none
attr title  "# of devices served on rac arriavall, vector"
vector 156  CAIN.eNodeB1.nic.mac  sentPacketToLowerLayer:vector(packetBytes)  ETV
attr interpolationmode  none
attr source  sentPacketToLowerLayer
vector 59  CAIN.pgw.ppp[0].ppp  rxPkOk:vector(packetBytes)  ETV
attr interpolationmode  none
attr source  rxPkOk
attr title  "packets received OK, vector(packetBytes)"
vector 63  CAIN.pgw.ppp[0].ppp  passedUpPk:vector(packetBytes)  ETV
attr interpolationmode  none
attr source  packetSentToUpper
attr title  "packets passed to higher layer, vector(packetBytes)"
vector 44  CAIN.pgw.udp  rcvdPk:vector(packetBytes)  ETV
attr interpolationmode  none
attr source  rcvdPk
attr title  "packets received, vector(packetBytes)"
vector 45  CAIN.pgw.udp  passedUpPk:vector(count)  ETV
attr interpolationmode  none
attr title  "packets passed up, vector(count)"
vector 43  CAIN.pgw.udp  sentPk:vector(packetBytes)  ETV
attr interpolationmode  none
attr source  sentPk
attr title  "packets sent, vector(packetBytes)"
vector 64  CAIN.pgw.ppp[1].queue  rcvdPk:vector(packetBytes)  ETV
attr interpolationmode  none
attr title  "received packets, vector(packetBytes)"
vector 66  CAIN.pgw.ppp[1].queue  queueingTime:vector  ETV
attr interpolationmode  none
attr title  "queueing time, vector"
vector 73  CAIN.pgw.ppp[1].ppp  rcvdPkFromHL:vector(packetBytes)  ETV
attr interpolationmode  none
attr source  packetReceivedFromUpper
attr title  "packets received from higher layer, vector(packetBytes)"
vector 69  CAIN.pgw.ppp[1].ppp  txPk:vector(packetBytes)  ETV
attr interpolationmode  none
attr source  packetSentToLower
attr title  "packets transmitted, vector(packetBytes)"
vector 181  CAIN.eNodeB1.pppIf.ppp  rxPkOk:vector(packetBytes)  ETV
attr interpolationmode  none
attr source  rxPkOk
attr title  "packets received OK, vector(packetBytes)"
vector 185  CAIN.eNodeB1.pppIf.ppp  passedUpPk:vector(packetBytes)  ETV
attr interpolationmode  none
attr source  packetSentToUpper
attr title  "packets passed to higher layer, vector(packetBytes)"
vector 1901  CAIN.ueD2DTx[17].tcp  tcpRcvQueueBytes  ETV
vector 1888  CAIN.ueD2DTx[17].tcp  "advertised window"  ETV
vector 1887  CAIN.ueD2DTx[17].tcp  "receive window"  ETV
vector 1890  CAIN.ueD2DTx[17].tcp  "sent ack"  ETV
vector 749  CAIN.ueD2DTx[17].nic.pdcpRrc  receivedPacketFromUpperLayer:vector(packetBytes)  ETV
attr interpolationmode  none
attr source  receivedPacketFromUpperLayer
vector 752  CAIN.ueD2DTx[17].nic.pdcpRrc  sentPacketToLowerLayer:vector(packetBytes)  ETV
attr interpolationmode  none
attr source  sentPacketToLowerLayer
vector 753  CAIN.ueD2DTx[17].nic.mac  receivedPacketFromUpperLayer:vector(packetBytes)  ETV
attr interpolationmode  none
attr source  receivedPacketFromUpperLayer
vector 242  CAIN.ueD2DTx[1].nic.mac  receivedPacketFromLowerLayer:vector(packetBytes)  ETV
attr interpolationmode  none
attr source  receivedPacketFromLowerLayer
vector 1925  CAIN.ueD2DTx[6].tcp  tcpRcvQueueBytes  ETV
vector 1912  CAIN.ueD2DTx[6].tcp  "advertised window"  ETV
vector 1911  CAIN.ueD2DTx[6].tcp  "receive window"  ETV
vector 1914  CAIN.ueD2DTx[6].tcp  "sent ack"  ETV
vector 397  CAIN.ueD2DTx[6].nic.pdcpRrc  receivedPacketFromUpperLayer:vector(packetBytes)  ETV
attr interpolationmode  none
attr source  receivedPacketFromUpperLayer
vector 400  CAIN.ueD2DTx[6].nic.pdcpRrc  sentPacketToLowerLayer:vector(packetBytes)  ETV
attr interpolationmode  none
attr source  sentPacketToLowerLayer
vector 401  CAIN.ueD2DTx[6].nic.mac  receivedPacketFromUpperLayer:vector(packetBytes)  ETV
attr interpolationmode  none
attr source  receivedPacketFromUpperLayer
vector 498  CAIN.ueD2DTx[9].nic.mac  receivedPacketFromLowerLayer:vector(packetBytes)  ETV
attr interpolationmode  none
attr source  receivedPacketFromLowerLayer
vector 500  CAIN.ueD2DTx[9].nic.mac  sentPacketToLowerLayer:vector(packetBytes)  ETV
attr interpolationmode  none
attr source  sentPacketToLowerLayer
vector 1949  CAIN.ueD2DTx[21].tcp  tcpRcvQueueBytes  ETV
vector 1936  CAIN.ueD2DTx[21].tcp  "advertised window"  ETV
vector 1935  CAIN.ueD2DTx[21].tcp  "receive window"  ETV
vector 1938  CAIN.ueD2DTx[21].tcp  "sent ack"  ETV
vector 877  CAIN.ueD2DTx[21].nic.pdcpRrc  receivedPacketFromUpperLayer:vector(packetBytes)  ETV
attr interpolationmode  none
attr source  receivedPacketFromUpperLayer
vector 880  CAIN.ueD2DTx[21].nic.pdcpRrc  sentPacketToLowerLayer:vector(packetBytes)  ETV
attr interpolationmode  none
attr source  sentPacketToLowerLayer
vector 881  CAIN.ueD2DTx[21].nic.mac  receivedPacketFromUpperLayer:vector(packetBytes)  ETV
attr interpolationmode  none
attr source  receivedPacketFromUpperLayer
vector 890  CAIN.ueD2DTx[21].nic.mac  CainMessageSent:vector  ETV
attr interpolationmode  none
attr title  "# of Sent CAIN message, vector"
vector 884  CAIN.ueD2DTx[21].nic.mac  sentPacketToLowerLayer:vector(packetBytes)  ETV
attr interpolationmode  none
attr source  sentPacketToLowerLayer
vector 505  CAIN.ueD2DTx[9].nic.mac  DropedHopMessage:vector  ETV
attr interpolationmode  none
attr title  "Droped Hop CAIN message due to RB not available, vector"
vector 210  CAIN.ueD2DTx[0].nic.mac  receivedPacketFromLowerLayer:vector(packetBytes)  ETV
attr interpolationmode  none
attr source  receivedPacketFromLowerLayer
vector 212  CAIN.ueD2DTx[0].nic.mac  sentPacketToLowerLayer:vector(packetBytes)  ETV
attr interpolationmode  none
attr source  sentPacketToLowerLayer
vector 403  CAIN.ueD2DTx[6].nic.mac  sentPacketToUpperLayer:vector(packetBytes)  ETV
attr interpolationmode  none
attr source  sentPacketToUpperLayer
vector 1973  CAIN.ueD2DTx[9].tcp  tcpRcvQueueBytes  ETV
vector 1960  CAIN.ueD2DTx[9].tcp  "advertised window"  ETV
vector 1959  CAIN.ueD2DTx[9].tcp  "receive window"  ETV
vector 1962  CAIN.ueD2DTx[9].tcp  "sent ack"  ETV
vector 493  CAIN.ueD2DTx[9].nic.pdcpRrc  receivedPacketFromUpperLayer:vector(packetBytes)  ETV
attr interpolationmode  none
attr source  receivedPacketFromUpperLayer
vector 496  CAIN.ueD2DTx[9].nic.pdcpRrc  sentPacketToLowerLayer:vector(packetBytes)  ETV
attr interpolationmode  none
attr source  sentPacketToLowerLayer
vector 497  CAIN.ueD2DTx[9].nic.mac  receivedPacketFromUpperLayer:vector(packetBytes)  ETV
attr interpolationmode  none
attr source  receivedPacketFromUpperLayer
vector 1997  CAIN.ueD2DTx[4].tcp  tcpRcvQueueBytes  ETV
vector 1984  CAIN.ueD2DTx[4].tcp  "advertised window"  ETV
vector 1983  CAIN.ueD2DTx[4].tcp  "receive window"  ETV
vector 1986  CAIN.ueD2DTx[4].tcp  "sent ack"  ETV
vector 333  CAIN.ueD2DTx[4].nic.pdcpRrc  receivedPacketFromUpperLayer:vector(packetBytes)  ETV
attr interpolationmode  none
attr source  receivedPacketFromUpperLayer
vector 336  CAIN.ueD2DTx[4].nic.pdcpRrc  sentPacketToLowerLayer:vector(packetBytes)  ETV
attr interpolationmode  none
attr source  sentPacketToLowerLayer
vector 337  CAIN.ueD2DTx[4].nic.mac  receivedPacketFromUpperLayer:vector(packetBytes)  ETV
attr interpolationmode  none
attr source  receivedPacketFromUpperLayer
vector 346  CAIN.ueD2DTx[4].nic.mac  CainMessageSent:vector  ETV
attr interpolationmode  none
attr title  "# of Sent CAIN message, vector"
vector 859  CAIN.ueD2DTx[20].nic.mac  CainHopMessageSent:vector  ETV
attr interpolationmode  none
attr title  "# of Sent CAIN hop message, vector"
vector 499  CAIN.ueD2DTx[9].nic.mac  sentPacketToUpperLayer:vector(packetBytes)  ETV
attr interpolationmode  none
attr source  sentPacketToUpperLayer
vector 696  CAIN.ueD2DTx[15].nic.mac  DropedCainMessage:vector  ETV
attr interpolationmode  none
attr title  "Droped CAIN message due to RB not available, vector"
vector 2021  CAIN.ueD2DTx[0].tcp  tcpRcvQueueBytes  ETV
vector 2008  CAIN.ueD2DTx[0].tcp  "advertised window"  ETV
vector 2007  CAIN.ueD2DTx[0].tcp  "receive window"  ETV
vector 2010  CAIN.ueD2DTx[0].tcp  "sent ack"  ETV
vector 205  CAIN.ueD2DTx[0].nic.pdcpRrc  receivedPacketFromUpperLayer:vector(packetBytes)  ETV
attr interpolationmode  none
attr source  receivedPacketFromUpperLayer
vector 208  CAIN.ueD2DTx[0].nic.pdcpRrc  sentPacketToLowerLayer:vector(packetBytes)  ETV
attr interpolationmode  none
attr source  sentPacketToLowerLayer
vector 209  CAIN.ueD2DTx[0].nic.mac  receivedPacketFromUpperLayer:vector(packetBytes)  ETV
attr interpolationmode  none
attr source  receivedPacketFromUpperLayer
vector 2045  CAIN.ueD2DTx[15].tcp  tcpRcvQueueBytes  ETV
vector 2032  CAIN.ueD2DTx[15].tcp  "advertised window"  ETV
vector 2031  CAIN.ueD2DTx[15].tcp  "receive window"  ETV
vector 2034  CAIN.ueD2DTx[15].tcp  "sent ack"  ETV
vector 685  CAIN.ueD2DTx[15].nic.pdcpRrc  receivedPacketFromUpperLayer:vector(packetBytes)  ETV
attr interpolationmode  none
attr source  receivedPacketFromUpperLayer
vector 688  CAIN.ueD2DTx[15].nic.pdcpRrc  sentPacketToLowerLayer:vector(packetBytes)  ETV
attr interpolationmode  none
attr source  sentPacketToLowerLayer
vector 689  CAIN.ueD2DTx[15].nic.mac  receivedPacketFromUpperLayer:vector(packetBytes)  ETV
attr interpolationmode  none
attr source  receivedPacketFromUpperLayer
vector 2069  CAIN.ueD2DTx[18].tcp  tcpRcvQueueBytes  ETV
vector 2056  CAIN.ueD2DTx[18].tcp  "advertised window"  ETV
vector 2055  CAIN.ueD2DTx[18].tcp  "receive window"  ETV
vector 2058  CAIN.ueD2DTx[18].tcp  "sent ack"  ETV
vector 781  CAIN.ueD2DTx[18].nic.pdcpRrc  receivedPacketFromUpperLayer:vector(packetBytes)  ETV
attr interpolationmode  none
attr source  receivedPacketFromUpperLayer
vector 784  CAIN.ueD2DTx[18].nic.pdcpRrc  sentPacketToLowerLayer:vector(packetBytes)  ETV
attr interpolationmode  none
attr source  sentPacketToLowerLayer
vector 785  CAIN.ueD2DTx[18].nic.mac  receivedPacketFromUpperLayer:vector(packetBytes)  ETV
attr interpolationmode  none
attr source  receivedPacketFromUpperLayer
vector 691  CAIN.ueD2DTx[15].nic.mac  sentPacketToUpperLayer:vector(packetBytes)  ETV
attr interpolationmode  none
attr source  sentPacketToUpperLayer
vector 754  CAIN.ueD2DTx[17].nic.mac  receivedPacketFromLowerLayer:vector(packetBytes)  ETV
attr interpolationmode  none
attr source  receivedPacketFromLowerLayer
vector 756  CAIN.ueD2DTx[17].nic.mac  sentPacketToLowerLayer:vector(packetBytes)  ETV
attr interpolationmode  none
attr source  sentPacketToLowerLayer
vector 786  CAIN.ueD2DTx[18].nic.mac  receivedPacketFromLowerLayer:vector(packetBytes)  ETV
attr interpolationmode  none
attr source  receivedPacketFromLowerLayer
vector 788  CAIN.ueD2DTx[18].nic.mac  sentPacketToLowerLayer:vector(packetBytes)  ETV
attr interpolationmode  none
attr source  sentPacketToLowerLayer
vector 274  CAIN.ueD2DTx[2].nic.mac  receivedPacketFromLowerLayer:vector(packetBytes)  ETV
attr interpolationmode  none
attr source  receivedPacketFromLowerLayer
vector 275  CAIN.ueD2DTx[2].nic.mac  sentPacketToUpperLayer:vector(packetBytes)  ETV
attr interpolationmode  none
attr source  sentPacketToUpperLayer
vector 173  CAIN.eNodeB1.nic.phy  averageCqiUlvect:vector  ETV
attr source  averageCqiUlvect
attr title  "Average Cqi reported in UL, vector"
attr unit  cqi
vector 155  CAIN.eNodeB1.nic.mac  sentPacketToUpperLayer:vector(packetBytes)  ETV
attr interpolationmode  none
attr source  sentPacketToUpperLayer
vector 157  CAIN.eNodeB1.nic.mac  measuredItbs:vector  ETV
attr source  measuredItbs
attr title  "TBS index, vector"
attr unit  ""
vector 762  CAIN.ueD2DTx[17].nic.mac  CainMessageSent:vector  ETV
attr interpolationmode  none
attr title  "# of Sent CAIN message, vector"
vector 243  CAIN.ueD2DTx[1].nic.mac  sentPacketToUpperLayer:vector(packetBytes)  ETV
attr interpolationmode  none
attr source  sentPacketToUpperLayer
vector 150  CAIN.eNodeB1.nic.pdcpRrc  receivedPacketFromLowerLayer:vector(packetBytes)  ETV
attr interpolationmode  none
attr source  receivedPacketFromLowerLayer
vector 151  CAIN.eNodeB1.nic.pdcpRrc  sentPacketToUpperLayer:vector(packetBytes)  ETV
attr interpolationmode  none
attr source  sentPacketToUpperLayer
vector 787  CAIN.ueD2DTx[18].nic.mac  sentPacketToUpperLayer:vector(packetBytes)  ETV
attr interpolationmode  none
attr source  sentPacketToUpperLayer
vector 891  CAIN.ueD2DTx[21].nic.mac  CainHopMessageSent:vector  ETV
attr interpolationmode  none
attr title  "# of Sent CAIN hop message, vector"
vector 219  CAIN.ueD2DTx[0].nic.mac  CainHopMessageSent:vector  ETV
attr interpolationmode  none
attr title  "# of Sent CAIN hop message, vector"
1268	175	0.0000001228	0
1379	260	0.0000006304	65535
1380	260	0.0000006304	8940
1381	260	0.0000006304	0.3725
1377	260	0.0000006304	3
1384	260	0.0000006304	1
1396	188	0.0000003096	0
1352	260	0.0000006304	65535
1353	260	0.0000006304	8940
1354	260	0.0000006304	0.3725
1350	260	0.0000006304	3
1357	260	0.0000006304	1
1369	188	0.0000003096	0
1070	260	0.0000006304	65535
1071	260	0.0000006304	8940
1072	260	0.0000006304	0.3725
1068	260	0.0000006304	3
1068	327	0.0000008564	1
1069	327	0.0000008564	2.26e-07
1074	4126	0.0570000972	2000
1074	4145	0.0570003844	2001
1074	4145	0.0570003844	2002
1074	4145	0.0570003844	2003
1074	4145	0.0570003844	2004
1074	4145	0.0570003844	2005
1074	4145	0.0570003844	2006
1074	4145	0.0570003844	2007
1074	20415	0.2570015836	2008
1074	20415	0.2570015836	2009
1074	20415	0.2570015836	2010
1074	20415	0.2570015836	2011
1074	20415	0.2570015836	2012
1074	20415	0.2570015836	2013
1074	20415	0.2570015836	2014
1074	20415	0.2570015836	2015
1074	20415	0.2570015836	2016
1074	20415	0.2570015836	2017
1074	20415	0.2570015836	2018
1074	20415	0.2570015836	2019
1074	20415	0.2570015836	2020
1074	20415	0.2570015836	2021
1074	20415	0.2570015836	2022
1074	20415	0.2570015836	2023
1074	20415	0.2570015836	2024
1074	20415	0.2570015836	2025
1074	20415	0.2570015836	2026
1074	20415	0.2570015836	2027
1074	20415	0.2570015836	2028
1074	20415	0.2570015836	2029
1074	20415	0.2570015836	2030
1074	20415	0.2570015836	2031
1074	20415	0.2570015836	2032
1074	20415	0.2570015836	2033
1074	20415	0.2570015836	2034
1074	20415	0.2570015836	2035
1074	20415	0.2570015836	2036
1074	20415	0.2570015836	2037
1074	20415	0.2570015836	2038
1074	20415	0.2570015836	2039
1074	20415	0.2570015836	2040
1074	20415	0.2570015836	2041
1074	20415	0.2570015836	2042
1074	20415	0.2570015836	2043
1074	20415	0.2570015836	2044
1074	20415	0.2570015836	2045
1074	20415	0.2570015836	2046
1074	20415	0.2570015836	2047
1074	20415	0.2570015836	2048
1074	20415	0.2570015836	2049
1074	20415	0.2570015836	2050
1074	20415	0.2570015836	2051
1074	20415	0.2570015836	2052
1074	20415	0.2570015836	2053
1074	20415	0.2570015836	2054
1074	20415	0.2570015836	2055
1074	20415	0.2570015836	2056
1074	20415	0.2570015836	2057
1074	20415	0.2570015836	2058
1074	20415	0.2570015836	2059
1074	20415	0.2570015836	2060
1074	20415	0.2570015836	2061
1074	20415	0.2570015836	2062
1074	20415	0.2570015836	2063
1074	20415	0.2570015836	2064
1074	20415	0.2570015836	2065
1074	20415	0.2570015836	2066
1074	20415	0.2570015836	2067
1074	20415	0.2570015836	2068
1074	20415	0.2570015836	2069
1074	20415	0.2570015836	2070
1074	20415	0.2570015836	2071
1077	232	0.000000552	1
1077	246	0.000000596	2
1076	232	0.000000552	1
1076	246	0.000000596	2
1078	327	0.0000008564	1
1078	333	0.0000009004	2
1087	156	0	0
1046	4126	0.0570000972	65533
1046	20401	0.2570003844	65535
1046	36013	0.4570015836	65535
1050	4126	0.0570000972	2
1050	4129	0.0570000972	2
1050	4153	0.0570003844	14
1050	4154	0.0570003844	0
1050	4155	0.0570003844	0
1050	4156	0.0570003844	0
1050	4157	0.0570003844	0
1050	4158	0.0570003844	0
1050	4159	0.0570003844	0
1050	20401	0.2570003844	0
1050	20480	0.2570015836	128
1050	20481	0.2570015836	0
1050	20482	0.2570015836	0
1050	20483	0.2570015836	0
1050	20484	0.2570015836	0
1050	20485	0.2570015836	0
1050	20486	0.2570015836	0
1050	20487	0.2570015836	0
1050	20488	0.2570015836	0
1050	20489	0.2570015836	0
1050	20490	0.2570015836	0
1050	20491	0.2570015836	0
1050	20492	0.2570015836	0
1050	20493	0.2570015836	0
1050	20494	0.2570015836	0
1050	20495	0.2570015836	0
1050	20496	0.2570015836	0
1050	20497	0.2570015836	0
1050	20498	0.2570015836	0
1050	20499	0.2570015836	0
1050	20500	0.2570015836	0
1050	20501	0.2570015836	0
1050	20502	0.2570015836	0
1050	20503	0.2570015836	0
1050	20504	0.2570015836	0
1050	20505	0.2570015836	0
1050	20506	0.2570015836	0
1050	20507	0.2570015836	0
1050	20508	0.2570015836	0
1050	20509	0.2570015836	0
1050	20510	0.2570015836	0
1050	20511	0.2570015836	0
1050	20512	0.2570015836	0
1050	20513	0.2570015836	0
1050	20514	0.2570015836	0
1050	20515	0.2570015836	0
1050	20516	0.2570015836	0
1050	20517	0.2570015836	0
1050	20518	0.2570015836	0
1050	20519	0.2570015836	0
1050	20520	0.2570015836	0
1050	20521	0.2570015836	0
1050	20522	0.2570015836	0
1050	20523	0.2570015836	0
1050	20524	0.2570015836	0
1050	20525	0.2570015836	0
1050	20526	0.2570015836	0
1050	20527	0.2570015836	0
1050	20528	0.2570015836	0
1050	20529	0.2570015836	0
1050	20530	0.2570015836	0
1050	20531	0.2570015836	0
1050	20532	0.2570015836	0
1050	20533	0.2570015836	0
1050	20534	0.2570015836	0
1050	20535	0.2570015836	0
1050	20536	0.2570015836	0
1050	20537	0.2570015836	0
1050	20538	0.2570015836	0
1050	20539	0.2570015836	0
1050	20540	0.2570015836	0
1050	20541	0.2570015836	0
1050	20542	0.2570015836	0
1050	20543	0.2570015836	0
1050	36013	0.4570015836	0
1055	4126	0.0570000972	0
1055	20401	0.2570003844	0
1055	36013	0.4570015836	0
1056	4126	0.0570000972	0
1056	20401	0.2570003844	0
1056	36013	0.4570015836	0
1057	4126	0.0570000972	0
1057	20401	0.2570003844	0
1057	36013	0.4570015836	0
1058	4126	0.0570000972	0
1058	20401	0.2570003844	0
1058	36013	0.4570015836	0
1059	4126	0.0570000972	0
1059	20401	0.2570003844	0
1059	36013	0.4570015836	0
1060	4126	0.0570000972	0
1060	20401	0.2570003844	0
1060	36013	0.4570015836	0
1061	4126	0.0570000972	0
1061	20401	0.2570003844	0
1061	36013	0.4570015836	0
1062	4126	0.0570000972	16
1062	20401	0.2570003844	16
1062	36013	0.4570015836	16
1064	188	0.0000003096	65535
1066	4129	0.0570000972	9.72e-08
1066	4153	0.0570003844	1.932e-07
1066	4153	0.0570003844	1.932e-07
1066	4153	0.0570003844	1.932e-07
1066	4153	0.0570003844	1.932e-07
1066	4153	0.0570003844	1.932e-07
1066	4153	0.0570003844	1.932e-07
1066	4153	0.0570003844	1.932e-07
1066	20480	0.2570015836	1.1052e-06
1066	20480	0.2570015836	1.1052e-06
1066	20480	0.2570015836	1.1052e-06
1066	20480	0.2570015836	1.1052e-06
1066	20480	0.2570015836	1.1052e-06
1066	20480	0.2570015836	1.1052e-06
1066	20480	0.2570015836	1.1052e-06
1066	20480	0.2570015836	1.1052e-06
1066	20480	0.2570015836	1.1052e-06
1066	20480	0.2570015836	1.1052e-06
1066	20480	0.2570015836	1.1052e-06
1066	20480	0.2570015836	1.1052e-06
1066	20480	0.2570015836	1.1052e-06
1066	20480	0.2570015836	1.1052e-06
1066	20480	0.2570015836	1.1052e-06
1066	20480	0.2570015836	1.1052e-06
1066	20480	0.2570015836	1.1052e-06
1066	20480	0.2570015836	1.1052e-06
1066	20480	0.2570015836	1.1052e-06
1066	20480	0.2570015836	1.1052e-06
1066	20480	0.2570015836	1.1052e-06
1066	20480	0.2570015836	1.1052e-06
1066	20480	0.2570015836	1.1052e-06
1066	20480	0.2570015836	1.1052e-06
1066	20480	0.2570015836	1.1052e-06
1066	20480	0.2570015836	1.1052e-06
1066	20480	0.2570015836	1.1052e-06
1066	20480	0.2570015836	1.1052e-06
1066	20480	0.2570015836	1.1052e-06
1066	20480	0.2570015836	1.1052e-06
1066	20480	0.2570015836	1.1052e-06
1066	20480	0.2570015836	1.1052e-06
1066	20480	0.2570015836	1.1052e-06
1066	20480	0.2570015836	1.1052e-06
1066	20480	0.2570015836	1.1052e-06
1066	20480	0.2570015836	1.1052e-06
1066	20480	0.2570015836	1.1052e-06
1066	20480	0.2570015836	1.1052e-06
1066	20480	0.2570015836	1.1052e-06
1066	20480	0.2570015836	1.1052e-06
1066	20480	0.2570015836	1.1052e-06
1066	20480	0.2570015836	1.1052e-06
1066	20480	0.2570015836	1.1052e-06
1066	20480	0.2570015836	1.1052e-06
1066	20480	0.2570015836	1.1052e-06
1066	20480	0.2570015836	1.1052e-06
1066	20480	0.2570015836	1.1052e-06
1066	20480	0.2570015836	1.1052e-06
1066	20480	0.2570015836	1.1052e-06
1066	20480	0.2570015836	1.1052e-06
1066	20480	0.2570015836	1.1052e-06
1066	20480	0.2570015836	1.1052e-06
1066	20480	0.2570015836	1.1052e-06
1066	20480	0.2570015836	1.1052e-06
1066	20480	0.2570015836	1.1052e-06
1066	20480	0.2570015836	1.1052e-06
1066	20480	0.2570015836	1.1052e-06
1066	20480	0.2570015836	1.1052e-06
1066	20480	0.2570015836	1.1052e-06
1066	20480	0.2570015836	1.1052e-06
1066	20480	0.2570015836	1.1052e-06
1066	20480	0.2570015836	1.1052e-06
1066	20480	0.2570015836	1.1052e-06
1066	20480	0.2570015836	1.1052e-06
1067	156	0	0
1298	203	0.000000458	65535
1299	203	0.000000458	8940
1300	203	0.000000458	0.3725
1296	203	0.000000458	3
1303	203	0.000000458	1
1311	729	0.0070001912	0
1311	16307	0.2070004784	0
1311	32196	0.4070016776	0
1312	729	0.0070001912	0
1312	16307	0.2070004784	0
1312	32196	0.4070016776	0
1313	729	0.0070001912	0
1313	16307	0.2070004784	0
1313	32196	0.4070016776	0
1315	175	0.0000001228	0
1271	203	0.000000458	65535
1272	203	0.000000458	8940
1273	203	0.000000458	0.3725
1269	203	0.000000458	3
1276	203	0.000000458	1
1284	729	0.0070001912	0
1284	16307	0.2070004784	0
1284	32196	0.4070016776	0
1285	729	0.0070001912	0
1285	16307	0.2070004784	0
1285	32196	0.4070016776	0
1286	729	0.0070001912	0
1286	16307	0.2070004784	0
1286	32196	0.4070016776	0
1288	175	0.0000001228	0
1325	203	0.000000458	65535
1325	93248	1.2070004784	65535
1326	203	0.000000458	8940
1326	93248	1.2070004784	8940
1327	203	0.000000458	0.3725
1327	93248	1.2070004784	23.84
1323	203	0.000000458	3
1323	280	0.0000006744	1
1323	729	0.0070001912	1
1323	16307	0.2070004784	1
1323	32196	0.4070016776	1
1324	280	0.0000006744	2.164e-07
1324	729	0.0070001912	1.912e-07
1324	16307	0.2070004784	0.2000002872
1324	32196	0.4070016776	0.2000011992
1328	674	0.007	2000
1328	729	0.0070001912	2001
1328	729	0.0070001912	2002
1328	729	0.0070001912	2003
1328	729	0.0070001912	2004
1328	729	0.0070001912	2005
1328	729	0.0070001912	2006
1328	729	0.0070001912	2007
1328	16307	0.2070004784	2008
1328	16307	0.2070004784	2009
1328	16307	0.2070004784	2010
1328	16307	0.2070004784	2011
1328	16307	0.2070004784	2012
1328	16307	0.2070004784	2013
1328	16307	0.2070004784	2014
1328	16307	0.2070004784	2015
1328	16307	0.2070004784	2016
1328	16307	0.2070004784	2017
1328	16307	0.2070004784	2018
1328	16307	0.2070004784	2019
1328	16307	0.2070004784	2020
1328	16307	0.2070004784	2021
1328	16307	0.2070004784	2022
1328	16307	0.2070004784	2023
1328	16307	0.2070004784	2024
1328	16307	0.2070004784	2025
1328	16307	0.2070004784	2026
1328	16307	0.2070004784	2027
1328	16307	0.2070004784	2028
1328	16307	0.2070004784	2029
1328	16307	0.2070004784	2030
1328	16307	0.2070004784	2031
1328	16307	0.2070004784	2032
1328	16307	0.2070004784	2033
1328	16307	0.2070004784	2034
1328	16307	0.2070004784	2035
1328	16307	0.2070004784	2036
1328	16307	0.2070004784	2037
1328	16307	0.2070004784	2038
1328	16307	0.2070004784	2039
1328	16307	0.2070004784	2040
1328	16307	0.2070004784	2041
1328	16307	0.2070004784	2042
1328	16307	0.2070004784	2043
1328	16307	0.2070004784	2044
1328	16307	0.2070004784	2045
1328	16307	0.2070004784	2046
1328	16307	0.2070004784	2047
1328	16307	0.2070004784	2048
1328	16307	0.2070004784	2049
1328	16307	0.2070004784	2050
1328	16307	0.2070004784	2051
1328	16307	0.2070004784	2052
1328	16307	0.2070004784	2053
1328	16307	0.2070004784	2054
1328	16307	0.2070004784	2055
1328	16307	0.2070004784	2056
1328	16307	0.2070004784	2057
1328	16307	0.2070004784	2058
1328	16307	0.2070004784	2059
1328	16307	0.2070004784	2060
1328	16307	0.2070004784	2061
1328	16307	0.2070004784	2062
1328	16307	0.2070004784	2063
1328	16307	0.2070004784	2064
1328	16307	0.2070004784	2065
1328	16307	0.2070004784	2066
1328	16307	0.2070004784	2067
1328	16307	0.2070004784	2068
1328	16307	0.2070004784	2069
1328	16307	0.2070004784	2070
1328	16307	0.2070004784	2071
1332	298	0.0000007624	1
1332	312	0.0000008064	2
1331	298	0.0000007624	1
1331	312	0.0000008064	2
1333	280	0.0000006744	1
1333	290	0.0000007184	2
1334	674	0.007	2
1334	729	0.0070001912	0
1334	729	0.0070001912	2
1334	729	0.0070001912	4
1334	729	0.0070001912	6
1334	729	0.0070001912	8
1334	729	0.0070001912	10
1334	729	0.0070001912	12
1334	729	0.0070001912	14
1334	16307	0.2070004784	12
1334	16307	0.2070004784	10
1334	16307	0.2070004784	8
1334	16307	0.2070004784	6
1334	16307	0.2070004784	4
1334	16307	0.2070004784	2
1334	16307	0.2070004784	0
1334	16307	0.2070004784	2
1334	16307	0.2070004784	4
1334	16307	0.2070004784	6
1334	16307	0.2070004784	8
1334	16307	0.2070004784	10
1334	16307	0.2070004784	12
1334	16307	0.2070004784	14
1334	16307	0.2070004784	16
1334	16307	0.2070004784	18
1334	16307	0.2070004784	20
1334	16307	0.2070004784	22
1334	16307	0.2070004784	24
1334	16307	0.2070004784	26
1334	16307	0.2070004784	28
1334	16307	0.2070004784	30
1334	16307	0.2070004784	32
1334	16307	0.2070004784	34
1334	16307	0.2070004784	36
1334	16307	0.2070004784	38
1334	16307	0.2070004784	40
1334	16307	0.2070004784	42
1334	16307	0.2070004784	44
1334	16307	0.2070004784	46
1334	16307	0.2070004784	48
1334	16307	0.2070004784	50
1334	16307	0.2070004784	52
1334	16307	0.2070004784	54
1334	16307	0.2070004784	56
1334	16307	0.2070004784	58
1334	16307	0.2070004784	60
1334	16307	0.2070004784	62
1334	16307	0.2070004784	64
1334	16307	0.2070004784	66
1334	16307	0.2070004784	68
1334	16307	0.2070004784	70
1334	16307	0.2070004784	72
1334	16307	0.2070004784	74
1334	16307	0.2070004784	76
1334	16307	0.2070004784	78
1334	16307	0.2070004784	80
1334	16307	0.2070004784	82
1334	16307	0.2070004784	84
1334	16307	0.2070004784	86
1334	16307	0.2070004784	88
1334	16307	0.2070004784	90
1334	16307	0.2070004784	92
1334	16307	0.2070004784	94
1334	16307	0.2070004784	96
1334	16307	0.2070004784	98
1334	16307	0.2070004784	100
1334	16307	0.2070004784	102
1334	16307	0.2070004784	104
1334	16307	0.2070004784	106
1334	16307	0.2070004784	108
1334	16307	0.2070004784	110
1334	16307	0.2070004784	112
1334	16307	0.2070004784	114
1334	16307	0.2070004784	116
1334	16307	0.2070004784	118
1334	16307	0.2070004784	120
1334	16307	0.2070004784	122
1334	16307	0.2070004784	124
1334	16307	0.2070004784	126
1334	16307	0.2070004784	128
1334	32196	0.4070016776	126
1334	32196	0.4070016776	124
1334	32196	0.4070016776	122
1334	32196	0.4070016776	120
1334	32196	0.4070016776	118
1334	32196	0.4070016776	116
1334	32196	0.4070016776	114
1334	32196	0.4070016776	112
1334	32196	0.4070016776	110
1334	32196	0.4070016776	108
1334	32196	0.4070016776	106
1334	32196	0.4070016776	104
1334	32196	0.4070016776	102
1334	32196	0.4070016776	100
1334	32196	0.4070016776	98
1334	32196	0.4070016776	96
1334	32196	0.4070016776	94
1334	32196	0.4070016776	92
1334	32196	0.4070016776	90
1334	32196	0.4070016776	88
1334	32196	0.4070016776	86
1334	32196	0.4070016776	84
1334	32196	0.4070016776	82
1334	32196	0.4070016776	80
1334	32196	0.4070016776	78
1334	32196	0.4070016776	76
1334	32196	0.4070016776	74
1334	32196	0.4070016776	72
1334	32196	0.4070016776	70
1334	32196	0.4070016776	68
1334	32196	0.4070016776	66
1334	32196	0.4070016776	64
1334	32196	0.4070016776	62
1334	32196	0.4070016776	60
1334	32196	0.4070016776	58
1334	32196	0.4070016776	56
1334	32196	0.4070016776	54
1334	32196	0.4070016776	52
1334	32196	0.4070016776	50
1334	32196	0.4070016776	48
1334	32196	0.4070016776	46
1334	32196	0.4070016776	44
1334	32196	0.4070016776	42
1334	32196	0.4070016776	40
1334	32196	0.4070016776	38
1334	32196	0.4070016776	36
1334	32196	0.4070016776	34
1334	32196	0.4070016776	32
1334	32196	0.4070016776	30
1334	32196	0.4070016776	28
1334	32196	0.4070016776	26
1334	32196	0.4070016776	24
1334	32196	0.4070016776	22
1334	32196	0.4070016776	20
1334	32196	0.4070016776	18
1334	32196	0.4070016776	16
1334	32196	0.4070016776	14
1334	32196	0.4070016776	12
1334	32196	0.4070016776	10
1334	32196	0.4070016776	8
1334	32196	0.4070016776	6
1334	32196	0.4070016776	4
1334	32196	0.4070016776	2
1334	32196	0.4070016776	0
1335	674	0.007	2
1335	729	0.0070001912	0
1335	729	0.0070001912	2
1335	729	0.0070001912	4
1335	729	0.0070001912	6
1335	729	0.0070001912	8
1335	729	0.0070001912	10
1335	729	0.0070001912	12
1335	729	0.0070001912	14
1335	16307	0.2070004784	12
1335	16307	0.2070004784	10
1335	16307	0.2070004784	8
1335	16307	0.2070004784	6
1335	16307	0.2070004784	4
1335	16307	0.2070004784	2
1335	16307	0.2070004784	0
1335	16307	0.2070004784	2
1335	16307	0.2070004784	4
1335	16307	0.2070004784	6
1335	16307	0.2070004784	8
1335	16307	0.2070004784	10
1335	16307	0.2070004784	12
1335	16307	0.2070004784	14
1335	16307	0.2070004784	16
1335	16307	0.2070004784	18
1335	16307	0.2070004784	20
1335	16307	0.2070004784	22
1335	16307	0.2070004784	24
1335	16307	0.2070004784	26
1335	16307	0.2070004784	28
1335	16307	0.2070004784	30
1335	16307	0.2070004784	32
1335	16307	0.2070004784	34
1335	16307	0.2070004784	36
1335	16307	0.2070004784	38
1335	16307	0.2070004784	40
1335	16307	0.2070004784	42
1335	16307	0.2070004784	44
1335	16307	0.2070004784	46
1335	16307	0.2070004784	48
1335	16307	0.2070004784	50
1335	16307	0.2070004784	52
1335	16307	0.2070004784	54
1335	16307	0.2070004784	56
1335	16307	0.2070004784	58
1335	16307	0.2070004784	60
1335	16307	0.2070004784	62
1335	16307	0.2070004784	64
1335	16307	0.2070004784	66
1335	16307	0.2070004784	68
1335	16307	0.2070004784	70
1335	16307	0.2070004784	72
1335	16307	0.2070004784	74
1335	16307	0.2070004784	76
1335	16307	0.2070004784	78
1335	16307	0.2070004784	80
1335	16307	0.2070004784	82
1335	16307	0.2070004784	84
1335	16307	0.2070004784	86
1335	16307	0.2070004784	88
1335	16307	0.2070004784	90
1335	16307	0.2070004784	92
1335	16307	0.2070004784	94
1335	16307	0.2070004784	96
1335	16307	0.2070004784	98
1335	16307	0.2070004784	100
1335	16307	0.2070004784	102
1335	16307	0.2070004784	104
1335	16307	0.2070004784	106
1335	16307	0.2070004784	108
1335	16307	0.2070004784	110
1335	16307	0.2070004784	112
1335	16307	0.2070004784	114
1335	16307	0.2070004784	116
1335	16307	0.2070004784	118
1335	16307	0.2070004784	120
1335	16307	0.2070004784	122
1335	16307	0.2070004784	124
1335	16307	0.2070004784	126
1335	16307	0.2070004784	128
1335	32196	0.4070016776	126
1335	32196	0.4070016776	124
1335	32196	0.4070016776	122
1335	32196	0.4070016776	120
1335	32196	0.4070016776	118
1335	32196	0.4070016776	116
1335	32196	0.4070016776	114
1335	32196	0.4070016776	112
1335	32196	0.4070016776	110
1335	32196	0.4070016776	108
1335	32196	0.4070016776	106
1335	32196	0.4070016776	104
1335	32196	0.4070016776	102
1335	32196	0.4070016776	100
1335	32196	0.4070016776	98
1335	32196	0.4070016776	96
1335	32196	0.4070016776	94
1335	32196	0.4070016776	92
1335	32196	0.4070016776	90
1335	32196	0.4070016776	88
1335	32196	0.4070016776	86
1335	32196	0.4070016776	84
1335	32196	0.4070016776	82
1335	32196	0.4070016776	80
1335	32196	0.4070016776	78
1335	32196	0.4070016776	76
1335	32196	0.4070016776	74
1335	32196	0.4070016776	72
1335	32196	0.4070016776	70
[...]
948	242759	3.148	0
948	243205	3.153	0
948	243587	3.158	0
948	244033	3.163	0
948	244449	3.168	0
948	244865	3.173	0
948	245311	3.178	0
948	245758	3.183	0
948	246140	3.188	0
948	246586	3.193	0
948	247002	3.198	0
948	247436	3.203	0
955	1583	0.023	1
955	1924	0.028	2
955	2288	0.033	3
955	2630	0.038	4
955	3004	0.043	5
955	3348	0.048	6
955	3692	0.053	7
955	4213	0.058	8
955	4678	0.063	9
955	5063	0.068	10
955	5573	0.073	11
955	6060	0.078	12
955	6532	0.083	13
955	7022	0.088	14
955	7489	0.093	15
955	7827	0.098	16
955	8278	0.103	17
955	8685	0.108	18
955	9060	0.113	19
955	9460	0.118	20
955	9860	0.123	21
955	10193	0.128	22
955	10593	0.133	23
955	10968	0.138	24
955	11343	0.143	25
955	11743	0.148	26
955	12143	0.153	27
955	12476	0.158	28
955	12876	0.163	29
955	13251	0.168	30
955	13626	0.173	31
955	14026	0.178	32
955	14426	0.183	33
955	14759	0.188	34
955	15159	0.193	35
955	15534	0.198	36
955	15928	0.203	37
955	16663	0.208	38
955	17063	0.213	39
955	17396	0.218	40
955	17796	0.223	41
955	18171	0.228	42
955	18546	0.233	43
955	18946	0.238	44
955	19346	0.243	45
955	19679	0.248	46
955	20079	0.253	47
955	20789	0.258	48
955	21164	0.263	49
955	21564	0.268	50
955	21964	0.273	51
955	22297	0.278	52
955	22697	0.283	53
955	23072	0.288	54
955	23447	0.293	55
955	23847	0.298	56
955	24266	0.303	57
955	24599	0.308	58
955	24999	0.313	59
955	25374	0.318	60
955	25749	0.323	61
955	26149	0.328	62
955	26549	0.333	63
955	26882	0.338	64
955	27282	0.343	65
955	27657	0.348	66
955	28032	0.353	67
955	28432	0.358	68
955	28832	0.363	69
955	29165	0.368	70
955	29565	0.373	71
955	29940	0.378	72
955	30315	0.383	73
955	30715	0.388	74
955	31115	0.393	75
955	31448	0.398	76
955	31867	0.403	77
955	32250	0.408	78
955	32625	0.413	79
955	33025	0.418	80
955	33425	0.423	81
955	33758	0.428	82
955	34158	0.433	83
955	34533	0.438	84
955	34908	0.443	85
955	35308	0.448	86
955	35708	0.453	87
955	36049	0.458	88
955	36449	0.463	89
955	36824	0.468	90
955	37199	0.473	91
955	37599	0.478	92
955	37999	0.483	93
955	38332	0.488	94
955	38732	0.493	95
955	39107	0.498	96
955	39501	0.503	97
955	39901	0.508	98
955	40301	0.513	99
955	40634	0.518	100
955	41034	0.523	101
955	41409	0.528	102
955	41784	0.533	103
955	42184	0.538	104
955	42584	0.543	105
955	42917	0.548	106
955	43317	0.553	107
955	43692	0.558	108
955	44067	0.563	109
955	44467	0.568	110
955	44867	0.573	111
955	45200	0.578	112
955	45600	0.583	113
955	45975	0.588	114
955	46350	0.593	115
955	46750	0.598	116
955	47169	0.603	117
955	47502	0.608	118
955	47902	0.613	119
955	48277	0.618	120
955	48652	0.623	121
955	49052	0.628	122
955	49452	0.633	123
955	49785	0.638	124
955	50185	0.643	125
955	50560	0.648	126
955	50935	0.653	127
955	51335	0.658	128
955	51735	0.663	129
955	52068	0.668	130
955	52468	0.673	131
955	52843	0.678	132
955	53218	0.683	133
955	53618	0.688	134
955	54018	0.693	135
955	54351	0.698	136
955	54770	0.703	137
955	55145	0.708	138
955	55520	0.713	139
955	55920	0.718	140
955	56320	0.723	141
955	56653	0.728	142
955	57053	0.733	143
955	57428	0.738	144
955	57803	0.743	145
955	58203	0.748	146
955	58603	0.753	147
955	58936	0.758	148
955	59336	0.763	149
955	59711	0.768	150
955	60086	0.773	151
955	60486	0.778	152
955	60886	0.783	153
955	61219	0.788	154
955	61619	0.793	155
955	61994	0.798	156
955	62388	0.803	157
955	62788	0.808	158
955	63188	0.813	159
955	63521	0.818	160
955	63921	0.823	161
955	64296	0.828	162
955	64671	0.833	163
955	65071	0.838	164
955	65471	0.843	165
955	65804	0.848	166
955	66204	0.853	167
955	66579	0.858	168
955	66954	0.863	169
955	67354	0.868	170
955	67754	0.873	171
955	68087	0.878	172
955	68487	0.883	173
955	68862	0.888	174
955	69237	0.893	175
955	69637	0.898	176
955	70056	0.903	177
955	70389	0.908	178
955	70789	0.913	179
955	71164	0.918	180
955	71539	0.923	181
955	71939	0.928	182
955	72339	0.933	183
955	72672	0.938	184
955	73072	0.943	185
955	73447	0.948	186
955	73822	0.953	187
955	74222	0.958	188
955	74622	0.963	189
955	74955	0.968	190
955	75355	0.973	191
955	75730	0.978	192
955	76105	0.983	193
955	76505	0.988	194
955	76905	0.993	195
955	77238	0.998	196
955	77657	1.003	197
955	78032	1.008	198
955	78407	1.013	199
955	78807	1.018	200
955	79207	1.023	201
955	79540	1.028	202
955	79940	1.033	203
955	80315	1.038	204
955	80690	1.043	205
955	81090	1.048	206
955	81490	1.053	207
955	81823	1.058	208
955	82223	1.063	209
955	82598	1.068	210
955	82973	1.073	211
955	83373	1.078	212
955	83773	1.083	213
955	84106	1.088	214
955	84506	1.093	215
955	84881	1.098	216
955	85275	1.103	217
955	85675	1.108	218
955	86075	1.113	219
955	86408	1.118	220
955	86808	1.123	221
955	87183	1.128	222
955	87558	1.133	223
955	87958	1.138	224
955	88358	1.143	225
955	88691	1.148	226
955	89091	1.153	227
955	89466	1.158	228
955	89841	1.163	229
955	90241	1.168	230
955	90641	1.173	231
955	90974	1.178	232
955	91374	1.183	233
955	91749	1.188	234
955	92124	1.193	235
955	92524	1.198	236
955	92943	1.203	237
955	93277	1.208	238
955	93677	1.213	239
955	94052	1.218	240
955	94427	1.223	241
955	94827	1.228	242
955	95227	1.233	243
955	95560	1.238	244
955	95960	1.243	245
955	96335	1.248	246
955	96710	1.253	247
955	97111	1.258	248
955	97511	1.263	249
955	97844	1.268	250
955	98244	1.273	251
955	98619	1.278	252
955	98994	1.283	253
955	99394	1.288	254
955	99794	1.293	255
955	100127	1.298	256
955	100546	1.303	257
955	100921	1.308	258
955	101296	1.313	259
955	101696	1.318	260
955	102096	1.323	261
955	102429	1.328	262
955	102829	1.333	263
955	103204	1.338	264
955	103579	1.343	265
955	103979	1.348	266
955	104379	1.353	267
955	104712	1.358	268
955	105112	1.363	269
955	105487	1.368	270
955	105862	1.373	271
955	106262	1.378	272
955	106662	1.383	273
955	106995	1.388	274
955	107395	1.393	275
955	107770	1.398	276
955	108164	1.403	277
955	108564	1.408	278
955	108964	1.413	279
955	109297	1.418	280
955	109697	1.423	281
955	110072	1.428	282
955	110447	1.433	283
955	110847	1.438	284
955	111247	1.443	285
955	111580	1.448	286
955	111980	1.453	287
955	112355	1.458	288
955	112730	1.463	289
955	113130	1.468	290
955	113530	1.473	291
955	113863	1.478	292
955	114263	1.483	293
955	114638	1.488	294
955	115013	1.493	295
955	115413	1.498	296
955	115832	1.503	297
955	116165	1.508	298
955	116565	1.513	299
955	116940	1.518	300
955	117315	1.523	301
955	117715	1.528	302
955	118115	1.533	303
955	118448	1.538	304
955	118848	1.543	305
955	119223	1.548	306
955	119598	1.553	307
955	119998	1.558	308
955	120398	1.563	309
955	120731	1.568	310
955	121131	1.573	311
955	121506	1.578	312
955	121881	1.583	313
955	122281	1.588	314
955	122681	1.593	315
955	123014	1.598	316
955	123433	1.603	317
955	123808	1.608	318
955	124183	1.613	319
955	124583	1.618	320
955	124983	1.623	321
955	125316	1.628	322
955	125716	1.633	323
955	126091	1.638	324
955	126466	1.643	325
955	126866	1.648	326
955	127266	1.653	327
955	127599	1.658	328
955	127999	1.663	329
955	128374	1.668	330
955	128749	1.673	331
955	129149	1.678	332
955	129549	1.683	333
955	129882	1.688	334
955	130282	1.693	335
955	130657	1.698	336
955	131051	1.703	337
955	131451	1.708	338
955	131851	1.713	339
955	132184	1.718	340
955	132584	1.723	341
955	132959	1.728	342
955	133334	1.733	343
955	133734	1.738	344
955	134134	1.743	345
955	134467	1.748	346
955	134867	1.753	347
955	135242	1.758	348
955	135617	1.763	349
955	136017	1.768	350
955	136417	1.773	351
955	136750	1.778	352
955	137150	1.783	353
955	137525	1.788	354
955	137900	1.793	355
955	138300	1.798	356
955	138719	1.803	357
955	139052	1.808	358
955	139452	1.813	359
955	139827	1.818	360
955	140202	1.823	361
955	140602	1.828	362
955	141002	1.833	363
955	141335	1.838	364
955	141735	1.843	365
955	142110	1.848	366
955	142485	1.853	367
955	142885	1.858	368
955	143285	1.863	369
955	143618	1.868	370
955	144018	1.873	371
955	144393	1.878	372
955	144768	1.883	373
955	145168	1.888	374
955	145568	1.893	375
955	145901	1.898	376
955	146320	1.903	377
955	146695	1.908	378
955	147070	1.913	379
955	147470	1.918	380
955	147870	1.923	381
955	148203	1.928	382
955	148603	1.933	383
955	148978	1.938	384
955	149353	1.943	385
955	149753	1.948	386
955	150153	1.953	387
955	150486	1.958	388
955	150886	1.963	389
955	151261	1.968	390
955	151636	1.973	391
955	152036	1.978	392
955	152436	1.983	393
955	152769	1.988	394
955	153169	1.993	395
955	153544	1.998	396
955	153938	2.003	397
955	154338	2.008	398
955	154738	2.013	399
955	155071	2.018	400
955	155471	2.023	401
955	155846	2.028	402
955	156221	2.033	403
955	156621	2.038	404
955	157021	2.043	405
955	157354	2.048	406
955	157754	2.053	407
955	158129	2.058	408
955	158504	2.063	409
955	158904	2.068	410
955	159304	2.073	411
955	159637	2.078	412
955	160037	2.083	413
955	160412	2.088	414
955	160787	2.093	415
955	161187	2.098	416
955	161606	2.103	417
955	161939	2.108	418
955	162339	2.113	419
955	162714	2.118	420
955	163089	2.123	421
955	163489	2.128	422
955	163889	2.133	423
955	164222	2.138	424
955	164622	2.143	425
955	164997	2.148	426
955	165372	2.153	427
955	165772	2.158	428
955	166172	2.163	429
955	166505	2.168	430
955	166905	2.173	431
955	167280	2.178	432
955	167655	2.183	433
955	168055	2.188	434
955	168455	2.193	435
955	168788	2.198	436
955	169207	2.203	437
955	169582	2.208	438
955	169957	2.213	439
955	170357	2.218	440
955	170757	2.223	441
955	171090	2.228	442
955	171490	2.233	443
955	171865	2.238	444
955	172240	2.243	445
955	172640	2.248	446
955	173040	2.253	447
955	173373	2.258	448
955	173773	2.263	449
955	174148	2.268	450
955	174523	2.273	451
955	174923	2.278	452
955	175323	2.283	453
955	175656	2.288	454
955	176056	2.293	455
955	176431	2.298	456
955	176825	2.303	457
955	177225	2.308	458
955	177625	2.313	459
955	177958	2.318	460
955	178358	2.323	461
955	178733	2.328	462
955	179108	2.333	463
955	179508	2.338	464
955	179908	2.343	465
955	180241	2.348	466
955	180641	2.353	467
955	181016	2.358	468
955	181391	2.363	469
955	181791	2.368	470
955	182191	2.373	471
955	182524	2.378	472
955	182924	2.383	473
955	183299	2.388	474
955	183674	2.393	475
955	184074	2.398	476
955	184493	2.403	477
955	184826	2.408	478
955	185226	2.413	479
955	185601	2.418	480
955	185976	2.423	481
955	186376	2.428	482
955	186776	2.433	483
955	187109	2.438	484
955	187509	2.443	485
955	187884	2.448	486
955	188259	2.453	487
955	188659	2.458	488
955	189059	2.463	489
955	189392	2.468	490
955	189792	2.473	491
955	190167	2.478	492
955	190542	2.483	493
955	190942	2.488	494
955	191342	2.493	495
955	191675	2.498	496
955	192094	2.503	497
955	192469	2.508	498
955	192844	2.513	499
955	193244	2.518	500
955	193644	2.523	501
955	193977	2.528	502
955	194377	2.533	503
955	194752	2.538	504
955	195127	2.543	505
955	195527	2.548	506
955	195927	2.553	507
955	196260	2.558	508
955	196660	2.563	509
955	197035	2.568	510
955	197410	2.573	511
955	197810	2.578	512
955	198210	2.583	513
955	198543	2.588	514
955	198943	2.593	515
955	199318	2.598	516
955	199712	2.603	517
955	200112	2.608	518
955	200512	2.613	519
955	200845	2.618	520
955	201245	2.623	521
955	201620	2.628	522
955	201995	2.633	523
955	202395	2.638	524
955	202795	2.643	525
955	203128	2.648	526
955	203528	2.653	527
955	203903	2.658	528
955	204278	2.663	529
955	204678	2.668	530
955	205078	2.673	531
955	205411	2.678	532
955	205811	2.683	533
955	206186	2.688	534
955	206561	2.693	535
955	206961	2.698	536
955	207380	2.703	537
955	207713	2.708	538
955	208113	2.713	539
955	208488	2.718	540
955	208863	2.723	541
955	209263	2.728	542
955	209663	2.733	543
955	209996	2.738	544
955	210396	2.743	545
955	210771	2.748	546
955	211146	2.753	547
955	211546	2.758	548
955	211946	2.763	549
955	212279	2.768	550
955	212679	2.773	551
955	213054	2.778	552
955	213429	2.783	553
955	213829	2.788	554
955	214229	2.793	555
955	214562	2.798	556
955	214981	2.803	557
955	215356	2.808	558
955	215731	2.813	559
955	216131	2.818	560
955	216531	2.823	561
955	216864	2.828	562
955	217264	2.833	563
955	217639	2.838	564
955	218014	2.843	565
955	218414	2.848	566
955	218814	2.853	567
955	219147	2.858	568
955	219547	2.863	569
955	219922	2.868	570
955	220297	2.873	571
955	220697	2.878	572
955	221097	2.883	573
955	221430	2.888	574
955	221830	2.893	575
955	222205	2.898	576
955	222599	2.903	577
955	222999	2.908	578
955	223399	2.913	579
955	223732	2.918	580
955	224132	2.923	581
955	224507	2.928	582
955	224882	2.933	583
955	225282	2.938	584
955	225682	2.943	585
955	226015	2.948	586
955	226415	2.953	587
955	226790	2.958	588
955	227165	2.963	589
955	227565	2.968	590
955	227965	2.973	591
955	228298	2.978	592
955	228698	2.983	593
955	229073	2.988	594
955	229448	2.993	595
955	229848	2.998	596
955	230267	3.003	597
955	230600	3.008	598
955	231000	3.013	599
955	231382	3.018	600
955	231785	3.023	601
955	232207	3.028	602
955	232642	3.033	603
955	233033	3.038	604
955	233458	3.043	605
955	233880	3.048	606
955	234263	3.053	607
955	234705	3.058	608
955	235166	3.063	609
955	235582	3.068	610
955	236121	3.073	611
955	236621	3.078	612
955	237081	3.083	613
955	237570	3.088	614
955	238063	3.093	615
955	238464	3.098	616
955	238929	3.103	617
955	239345	3.108	618
955	239761	3.113	619
955	240207	3.118	620
955	240653	3.123	621
955	241035	3.128	622
955	241481	3.133	623
955	241897	3.138	624
955	242313	3.143	625
955	242759	3.148	626
955	243205	3.153	627
955	243587	3.158	628
955	244033	3.163	629
955	244449	3.168	630
955	244865	3.173	631
955	245311	3.178	632
955	245758	3.183	633
955	246140	3.188	634
955	246586	3.193	635
955	247002	3.198	636
955	247436	3.203	637
967	0	0	1
973	2405	0.035430226282	44
973	232793	3.035430226282	44
976	2405	0.035430226282	45
976	232793	3.035430226282	45
977	2408	0.035430226282	45
977	2787	0.04	47
977	232796	3.035430226282	45
977	233224	3.04	47
978	2697	0.038	0
978	2735	0.039	0
978	3174	0.045	0
978	3176	0.045	0
978	5282	0.069	0
978	5343	0.07	0
978	5346	0.07	0
978	5413	0.071	0
978	5499	0.072	0
978	5502	0.072	0
978	233122	3.038	0
978	233166	3.039	0
978	233667	3.045	0
978	233669	3.045	0
978	235778	3.069	0
978	235856	3.07	0
978	235859	3.07	0
978	235947	3.071	0
978	236047	3.072	0
978	236050	3.072	0
979	2783	0.04	0
979	233220	3.04	0
980	2461	0.036	0
980	2790	0.04	0
980	5282	0.069	0
980	5343	0.07	0
980	5346	0.07	0
980	5413	0.071	0
980	5499	0.072	0
980	5502	0.072	0
980	232850	3.036	0
980	233227	3.04	0
980	235778	3.069	0
980	235856	3.07	0
980	235859	3.07	0
980	235947	3.071	0
980	236047	3.072	0
980	236050	3.072	0
999	0	0	1
1479	1210	0.016661029886	7504
1479	231267	3.016661029886	7504
1480	1210	0.016661029886	7504
1480	231267	3.016661029886	7504
1482	1210	0.016661029886	0
1482	231267	3.016661029886	0
1493	1210	0.016661029886	0
1493	231267	3.016661029886	0
1503	1386	0.019660798032	7504
1503	231490	3.019660798032	7504
1504	1386	0.019660798032	7504
1504	231490	3.019660798032	7504
1506	1386	0.019660798032	0
1506	231490	3.019660798032	0
1517	1386	0.019660798032	0
1517	231490	3.019660798032	0
1527	1542	0.022310547896	7504
1527	231743	3.022310547896	7504
1528	1542	0.022310547896	7504
1528	231743	3.022310547896	7504
1530	1542	0.022310547896	0
1530	231743	3.022310547896	0
1541	1542	0.022310547896	0
1541	231743	3.022310547896	0
1551	1550	0.022555459228	7504
1551	231750	3.022555459228	7504
1552	1550	0.022555459228	7504
1552	231750	3.022555459228	7504
1554	1550	0.022555459228	0
1554	231750	3.022555459228	0
1565	1550	0.022555459228	0
1565	231750	3.022555459228	0
1575	1595	0.023988382854	7504
1575	231812	3.023988382854	7504
1576	1595	0.023988382854	7504
1576	231812	3.023988382854	7504
1578	1595	0.023988382854	0
1578	231812	3.023988382854	0
1589	1595	0.023988382854	0
1589	231812	3.023988382854	0
1599	1759	0.025952952534	7504
1599	231986	3.025952952534	7504
1600	1759	0.025952952534	7504
1600	231986	3.025952952534	7504
1602	1759	0.025952952534	0
1602	231986	3.025952952534	0
1613	1759	0.025952952534	0
1613	231986	3.025952952534	0
1623	1939	0.028524626123	7504
1623	232234	3.028524626123	7504
1624	1939	0.028524626123	7504
1624	232234	3.028524626123	7504
1626	1939	0.028524626123	0
1626	232234	3.028524626123	0
1637	1939	0.028524626123	0
1637	232234	3.028524626123	0
1647	2250	0.032752273618	7504
1647	232603	3.032752273618	7504
1648	2250	0.032752273618	7504
1648	232603	3.032752273618	7504
1650	2250	0.032752273618	0
1650	232603	3.032752273618	0
1661	2250	0.032752273618	0
1661	232603	3.032752273618	0
1671	2402	0.035430226282	7504
1671	232790	3.035430226282	7504
1672	2402	0.035430226282	7504
1672	232790	3.035430226282	7504
1674	2402	0.035430226282	0
1674	232790	3.035430226282	0
1685	2402	0.035430226282	0
1685	232790	3.035430226282	0
1695	2594	0.037729873816	7504
1695	232997	3.037729873816	7504
1696	2594	0.037729873816	7504
1696	232997	3.037729873816	7504
1698	2594	0.037729873816	0
1698	232997	3.037729873816	0
1709	2594	0.037729873816	0
1709	232997	3.037729873816	0
1719	3244	0.046595396413	7504
1719	233762	3.046595396413	7504
1720	3244	0.046595396413	7504
1720	233762	3.046595396413	7504
1722	3244	0.046595396413	0
1722	233762	3.046595396413	0
1733	3244	0.046595396413	0
1733	233762	3.046595396413	0
1743	3712	0.053440309435	7504
1743	234290	3.053440309435	7504
1744	3712	0.053440309435	7504
1744	234290	3.053440309435	7504
1746	3712	0.053440309435	0
1746	234290	3.053440309435	0
1757	3712	0.053440309435	0
1757	234290	3.053440309435	0
1767	3720	0.05394782705	7504
1767	234297	3.05394782705	7504
1768	3720	0.05394782705	7504
1768	234297	3.05394782705	7504
1770	3720	0.05394782705	0
1770	234297	3.05394782705	0
1781	3720	0.05394782705	0
1781	234297	3.05394782705	0
1791	3915	0.055913616046	7504
1791	234475	3.055913616046	7504
1792	3915	0.055913616046	7504
1792	234475	3.055913616046	7504
1794	3915	0.055913616046	0
1794	234475	3.055913616046	0
1805	3915	0.055913616046	0
1805	234475	3.055913616046	0
1815	4240	0.058808041334	7504
1815	234734	3.058808041334	7504
1816	4240	0.058808041334	7504
1816	234734	3.058808041334	7504
1818	4240	0.058808041334	0
1818	234734	3.058808041334	0
1829	4240	0.058808041334	0
1829	234734	3.058808041334	0
1839	4396	0.060918334927	7504
1839	234893	3.060918334927	7504
1840	4396	0.060918334927	7504
1840	234893	3.060918334927	7504
1842	4396	0.060918334927	0
1842	234893	3.060918334927	0
1853	4396	0.060918334927	0
1853	234893	3.060918334927	0
1863	4925	0.066956260251	7504
1863	235436	3.066956260251	7504
1864	4925	0.066956260251	7504
1864	235436	3.066956260251	7504
1866	4925	0.066956260251	0
1866	235436	3.066956260251	0
1877	4925	0.066956260251	0
1877	235436	3.066956260251	0
1887	5186	0.068834142487	7504
1887	235706	3.068834142487	7504
1888	5186	0.068834142487	7504
1888	235706	3.068834142487	7504
1890	5186	0.068834142487	0
1890	235706	3.068834142487	0
1901	5186	0.068834142487	0
1901	235706	3.068834142487	0
1911	5294	0.069116189484	7504
1911	235791	3.069116189484	7504
1912	5294	0.069116189484	7504
1912	235791	3.069116189484	7504
1914	5294	0.069116189484	0
1914	235791	3.069116189484	0
1925	5294	0.069116189484	0
1925	235791	3.069116189484	0
1935	5416	0.07167949236	7504
1935	235955	3.07167949236	7504
1936	5416	0.07167949236	7504
1936	235955	3.07167949236	7504
1938	5416	0.07167949236	0
1938	235955	3.07167949236	0
1949	5416	0.07167949236	0
1949	235955	3.07167949236	0
1959	5762	0.074373740533	7504
1959	236315	3.074373740533	7504
1960	5762	0.074373740533	7504
1960	236315	3.074373740533	7504
1962	5762	0.074373740533	0
1962	236315	3.074373740533	0
1973	5762	0.074373740533	0
1973	236315	3.074373740533	0
1983	5864	0.07505697578	7504
1983	236409	3.07505697578	7504
1984	5864	0.07505697578	7504
1984	236409	3.07505697578	7504
1986	5864	0.07505697578	0
1986	236409	3.07505697578	0
1997	5864	0.07505697578	0
1997	236409	3.07505697578	0
2007	6484	0.08215464002	7504
2007	237033	3.08215464002	7504
2008	6484	0.08215464002	7504
2008	237033	3.08215464002	7504
2010	6484	0.08215464002	0
2010	237033	3.08215464002	0
2021	6484	0.08215464002	0
2021	237033	3.08215464002	0
2031	6578	0.083428886256	7504
2031	237129	3.083428886256	7504
2032	6578	0.083428886256	7504
2032	237129	3.083428886256	7504
2034	6578	0.083428886256	0
2034	237129	3.083428886256	0
2045	6578	0.083428886256	0
2045	237129	3.083428886256	0
2055	6894	0.086610205313	7504
2055	237463	3.086610205313	7504
2056	6894	0.086610205313	7504
2056	237463	3.086610205313	7504
2058	6894	0.086610205313	0
2058	237463	3.086610205313	0
2069	6894	0.086610205313	0
2069	237463	3.086610205313	0
