file 191035 1580830897                                          
version 2
run CAIN-330-20200204-12:40:37-11906
attr configname CAIN
attr datetime 20200204-12:40:37
attr dist 240
attr experiment CAIN
attr inifile omnetpp.ini
attr iterationvars "$dist=240, $mob=\"./movements/RWPRPGM-0.5.movements\""
attr iterationvars2 "$dist=240, $mob=\"./movements/RWPRPGM-0.5.movements\", $repetition=15"
attr measurement "$dist=240, $mob=\"./movements/RWPRPGM-0.5.movements\""
attr mob "\"./movements/RWPRPGM-0.5.movements\""
attr network lte.simulations.networks.CAIN
attr processid 11906
attr repetition 15
attr replication #15
attr resultdir results
attr runnumber 330
attr seedset 15
param **.**.amcMode "\"AUTO\""
param **.amcMode "\"D2D\""
param **.cainNetwork true
param **.channelControl.alpha 1.0
param **.channelControl.carrierFrequency 2100e+6Hz
param **.channelControl.pMax 10W
param **.d2dCqi 7
param **.deployer.numRbDl 50
param **.deployer.numRbUl 50
param **.distThresh "${dist=200..260 step 10}"
param **.fbDelay 1
param **.feedbackComputation "xmldoc(\"config_channel.xml\")"
param **.mobility.constraintAreaMaxX 1000m
param **.mobility.constraintAreaMaxY 1000m
param **.mobility.constraintAreaMaxZ 0m
param **.mobility.constraintAreaMinX 0m
param **.mobility.constraintAreaMinY 0m
param **.mobility.constraintAreaMinZ 0m
param **.nic.phy.channelModel "xmldoc(\"config_channel.xml\")"
param **.numBands 50
param **.pwrThresh -10
param **.qtdThresh 3
param **.rbAllocationType "\"localized\""
param **.routingRecorder.enabled false
param **.tcpApp[*].tClose -1s
param **.ueD2DTx[*].mobility.changeAngleBy "normal(0deg, 30deg)"
param **.ueD2DTx[*].mobility.changeInterval "normal(5s, 0.1s)"
param **.ueD2DTx[*].mobility.nodeId -1
param **.ueD2DTx[*].mobility.speed "normal(2mps, 0.01mps)"
param **.ueD2DTx[*].mobility.traceFile "${mob=\"./movements/RWPRPGM-0.0.movements\",\"./movements/RWPRPGM-0.5.movements\"}"
param **.ueD2DTx[*].mobilityType "\"BonnMotionMobility\""
param **.usePreconfiguredTxParams false
param *.eNodeB.d2dCapable false
param *.eNodeB.mobility.initFromDisplayString false
param *.eNodeB.mobility.initialX 300m
param *.eNodeB.mobility.initialY 300m
param *.eNodeB.nic.phy.enableD2DCqiReporting true
param *.eNodeB.txPower 19952.62315mw
param *.numUeCell 0
param *.numUeD2DRx 1
param *.numUeD2DTx 1
param *.ue*.macCellId 1
param *.ue*.masterId 1
param *.ue*.mobility.initFromDisplayString false
param *.ue*[0].macCellId 1
param *.ue*[0].masterId 1
param *.ue*[0].mobility.initFromDisplayString false
param *.ueD2D*.numTcpApps 1
param *.ueD2D*[*].d2dCapable true
param *.ueD2D*[0].d2dCapable false
param *.ueD2D*[0].numTcpApps 1
param *.ueD2DRx[0].mobility.initialX 310m
param *.ueD2DRx[0].mobility.initialY 350m
param *.ueD2DRx[0].tcpApp[*].localPort 1000
param *.ueD2DRx[0].tcpApp[*].typename "\"TCPSinkApp\""
param *.ueD2DTx*.tcpApp[*].connectAddress "\"ueD2DTx[0]\""
param *.ueD2DTx*.tcpApp[*].localAddress "\"ueD2DTx\""
param *.ueD2DTx*.tcpApp[*].localPort 1000
param *.ueD2DTx*.tcpApp[*].sendBytes 1GiB
param *.ueD2DTx*.tcpApp[*].typename "\"TCPSessionApp\""
param *.ueD2DTx*.tcpApp[0].active true
param *.ueD2DTx*.tcpApp[0].connectPort 1000
param *.ueD2DTx*.tcpApp[0].tOpen uniform(0.010s,0.1s)
param *.ueD2DTx*.tcpApp[0].tSend uniform(0.15s,0.5s)
param *.ueD2DTx[0].mobility.initialX 290m
param *.ueD2DTx[0].mobility.initialY 350m
param *.ueD2DTx[0].nic.d2dPeerAddresses "\"ueD2DTx[1]\""
param *.ueD2DTx[0].tcpApp[*].localPort 1000
param *.ueD2DTx[0].tcpApp[*].sendBytes 1GiB
param *.ueD2DTx[0].tcpApp[*].typename "\"TCPSessionApp\""
param *.ueD2DTx[0].tcpApp[0].active true
param *.ueD2DTx[0].tcpApp[0].connectAddress "\"ueD2DRx[0]\""
param *.ueD2DTx[0].tcpApp[0].connectPort 1000
param *.ueD2DTx[0].tcpApp[0].localAddress "\"ueD2DTx[0]\""
param *.ueD2DTx[0].tcpApp[0].tOpen uniform(0.010s,0.1s)
param *.ueD2DTx[0].tcpApp[0].tSend uniform(0.15s,0.5s)
param *.ueD2DTx[1].nic.d2dPeerAddresses "\"ueD2DTx[0]\""

vector 8  CAIN.server.ppp[0].queue  queueLength:vector  ETV
attr interpolationmode  sample-hold
attr title  "queue length, vector"
vector 9  CAIN.server.ppp[0].ppp  txState:vector  ETV
attr interpolationmode  sample-hold
attr title  "tx state, vector"
vector 24  CAIN.router.ppp[0].queue  queueLength:vector  ETV
attr interpolationmode  sample-hold
attr title  "queue length, vector"
vector 25  CAIN.router.ppp[0].ppp  txState:vector  ETV
attr interpolationmode  sample-hold
attr title  "tx state, vector"
vector 35  CAIN.router.ppp[1].queue  queueLength:vector  ETV
attr interpolationmode  sample-hold
attr title  "queue length, vector"
vector 36  CAIN.router.ppp[1].ppp  txState:vector  ETV
attr interpolationmode  sample-hold
attr title  "tx state, vector"
vector 56  CAIN.pgw.ppp[0].queue  queueLength:vector  ETV
attr interpolationmode  sample-hold
attr title  "queue length, vector"
vector 57  CAIN.pgw.ppp[0].ppp  txState:vector  ETV
attr interpolationmode  sample-hold
attr title  "tx state, vector"
vector 67  CAIN.pgw.pppInterface.queue  queueLength:vector  ETV
attr interpolationmode  sample-hold
attr title  "queue length, vector"
vector 68  CAIN.pgw.pppInterface.ppp  txState:vector  ETV
attr interpolationmode  sample-hold
attr title  "tx state, vector"
vector 104  CAIN.eNodeB.pppIf.queue  queueLength:vector  ETV
attr interpolationmode  sample-hold
attr title  "queue length, vector"
vector 105  CAIN.eNodeB.pppIf.ppp  txState:vector  ETV
attr interpolationmode  sample-hold
attr title  "tx state, vector"
vector 138  CAIN.ueD2DTx[0].nic.phy  servingCell:vector  ETV
attr source  servingCell
attr title  "ID of the serving eNodeB for the UE, vector"
attr unit  ""
vector 165  CAIN.ueD2DTx[1].nic.phy  servingCell:vector  ETV
attr source  servingCell
attr title  "ID of the serving eNodeB for the UE, vector"
attr unit  ""
vector 192  CAIN.ueD2DTx[2].nic.phy  servingCell:vector  ETV
attr source  servingCell
attr title  "ID of the serving eNodeB for the UE, vector"
attr unit  ""
vector 219  CAIN.ueD2DTx[3].nic.phy  servingCell:vector  ETV
attr source  servingCell
attr title  "ID of the serving eNodeB for the UE, vector"
attr unit  ""
vector 246  CAIN.ueD2DTx[4].nic.phy  servingCell:vector  ETV
attr source  servingCell
attr title  "ID of the serving eNodeB for the UE, vector"
attr unit  ""
vector 85  CAIN.eNodeB.nic.mac  receivedPacketFromLowerLayer:vector(packetBytes)  ETV
attr interpolationmode  none
attr source  receivedPacketFromLowerLayer
vector 264  CAIN.ueD2DTx[3].tcp  tcpRcvQueueBytes  ETV
vector 251  CAIN.ueD2DTx[3].tcp  "advertised window"  ETV
vector 250  CAIN.ueD2DTx[3].tcp  "receive window"  ETV
vector 253  CAIN.ueD2DTx[3].tcp  "sent ack"  ETV
vector 198  CAIN.ueD2DTx[3].nic.pdcpRrc  receivedPacketFromUpperLayer:vector(packetBytes)  ETV
attr interpolationmode  none
attr source  receivedPacketFromUpperLayer
vector 201  CAIN.ueD2DTx[3].nic.pdcpRrc  sentPacketToLowerLayer:vector(packetBytes)  ETV
attr interpolationmode  none
attr source  sentPacketToLowerLayer
vector 202  CAIN.ueD2DTx[3].nic.mac  receivedPacketFromUpperLayer:vector(packetBytes)  ETV
attr interpolationmode  none
attr source  receivedPacketFromUpperLayer
vector 205  CAIN.ueD2DTx[3].nic.mac  sentPacketToLowerLayer:vector(packetBytes)  ETV
attr interpolationmode  none
attr source  sentPacketToLowerLayer
vector 96  CAIN.eNodeB.nic.mac  racpkt:vector  ETV
attr interpolationmode  none
attr title  "eNB received racpkt message, vector"
vector 97  CAIN.eNodeB.nic.mac  racDistanceSignal:vector  ETV
attr interpolationmode  none
attr title  "Rac distance to enb, vector"
vector 87  CAIN.eNodeB.nic.mac  sentPacketToLowerLayer:vector(packetBytes)  ETV
attr interpolationmode  none
attr source  sentPacketToLowerLayer
vector 149  CAIN.ueD2DTx[1].nic.mac  receivedPacketFromLowerLayer:vector(packetBytes)  ETV
attr interpolationmode  none
attr source  receivedPacketFromLowerLayer
vector 160  CAIN.ueD2DTx[1].nic.mac  racpkt:vector  ETV
attr interpolationmode  none
attr title  "eNB received racpkt message, vector"
vector 161  CAIN.ueD2DTx[1].nic.mac  racDistanceSignal:vector  ETV
attr interpolationmode  none
attr title  "Rac distance to enb, vector"
vector 151  CAIN.ueD2DTx[1].nic.mac  sentPacketToLowerLayer:vector(packetBytes)  ETV
attr interpolationmode  none
attr source  sentPacketToLowerLayer
vector 176  CAIN.ueD2DTx[2].nic.mac  receivedPacketFromLowerLayer:vector(packetBytes)  ETV
attr interpolationmode  none
attr source  receivedPacketFromLowerLayer
vector 187  CAIN.ueD2DTx[2].nic.mac  racpkt:vector  ETV
attr interpolationmode  none
attr title  "eNB received racpkt message, vector"
vector 188  CAIN.ueD2DTx[2].nic.mac  racDistanceSignal:vector  ETV
attr interpolationmode  none
attr title  "Rac distance to enb, vector"
vector 178  CAIN.ueD2DTx[2].nic.mac  sentPacketToLowerLayer:vector(packetBytes)  ETV
attr interpolationmode  none
attr source  sentPacketToLowerLayer
vector 203  CAIN.ueD2DTx[3].nic.mac  receivedPacketFromLowerLayer:vector(packetBytes)  ETV
attr interpolationmode  none
attr source  receivedPacketFromLowerLayer
vector 214  CAIN.ueD2DTx[3].nic.mac  racpkt:vector  ETV
attr interpolationmode  none
attr title  "eNB received racpkt message, vector"
vector 215  CAIN.ueD2DTx[3].nic.mac  racDistanceSignal:vector  ETV
attr interpolationmode  none
attr title  "Rac distance to enb, vector"
vector 122  CAIN.ueD2DTx[0].nic.mac  receivedPacketFromLowerLayer:vector(packetBytes)  ETV
attr interpolationmode  none
attr source  receivedPacketFromLowerLayer
vector 133  CAIN.ueD2DTx[0].nic.mac  racpkt:vector  ETV
attr interpolationmode  none
attr title  "eNB received racpkt message, vector"
vector 134  CAIN.ueD2DTx[0].nic.mac  racDistanceSignal:vector  ETV
attr interpolationmode  none
attr title  "Rac distance to enb, vector"
vector 124  CAIN.ueD2DTx[0].nic.mac  sentPacketToLowerLayer:vector(packetBytes)  ETV
attr interpolationmode  none
attr source  sentPacketToLowerLayer
vector 230  CAIN.ueD2DTx[4].nic.mac  receivedPacketFromLowerLayer:vector(packetBytes)  ETV
attr interpolationmode  none
attr source  receivedPacketFromLowerLayer
vector 241  CAIN.ueD2DTx[4].nic.mac  racpkt:vector  ETV
attr interpolationmode  none
attr title  "eNB received racpkt message, vector"
vector 242  CAIN.ueD2DTx[4].nic.mac  racDistanceSignal:vector  ETV
attr interpolationmode  none
attr title  "Rac distance to enb, vector"
vector 232  CAIN.ueD2DTx[4].nic.mac  sentPacketToLowerLayer:vector(packetBytes)  ETV
attr interpolationmode  none
attr source  sentPacketToLowerLayer
vector 204  CAIN.ueD2DTx[3].nic.mac  sentPacketToUpperLayer:vector(packetBytes)  ETV
attr interpolationmode  none
attr source  sentPacketToUpperLayer
vector 99  CAIN.eNodeB.nic.phy  averageCqiUlvect:vector  ETV
attr source  averageCqiUlvect
attr title  "Average Cqi reported in UL, vector"
attr unit  cqi
vector 93  CAIN.eNodeB.nic.mac  ServedDevs:vector  ETV
attr interpolationmode  none
attr title  "# of devices served on cain forwarding, vector"
vector 91  CAIN.eNodeB.nic.mac  DistanceSignal:vector  ETV
attr interpolationmode  none
attr title  "Distance to enb, vector"
vector 89  CAIN.eNodeB.nic.mac  CainMessage:vector  ETV
attr interpolationmode  none
attr title  "eNB received CAIN message, vector"
vector 288  CAIN.ueD2DTx[4].tcp  tcpRcvQueueBytes  ETV
vector 275  CAIN.ueD2DTx[4].tcp  "advertised window"  ETV
vector 274  CAIN.ueD2DTx[4].tcp  "receive window"  ETV
vector 277  CAIN.ueD2DTx[4].tcp  "sent ack"  ETV
vector 225  CAIN.ueD2DTx[4].nic.pdcpRrc  receivedPacketFromUpperLayer:vector(packetBytes)  ETV
attr interpolationmode  none
attr source  receivedPacketFromUpperLayer
vector 228  CAIN.ueD2DTx[4].nic.pdcpRrc  sentPacketToLowerLayer:vector(packetBytes)  ETV
attr interpolationmode  none
attr source  sentPacketToLowerLayer
vector 229  CAIN.ueD2DTx[4].nic.mac  receivedPacketFromUpperLayer:vector(packetBytes)  ETV
attr interpolationmode  none
attr source  receivedPacketFromUpperLayer
vector 86  CAIN.eNodeB.nic.mac  sentPacketToUpperLayer:vector(packetBytes)  ETV
attr interpolationmode  none
attr source  sentPacketToUpperLayer
vector 81  CAIN.eNodeB.nic.pdcpRrc  receivedPacketFromLowerLayer:vector(packetBytes)  ETV
attr interpolationmode  none
attr source  receivedPacketFromLowerLayer
vector 82  CAIN.eNodeB.nic.pdcpRrc  sentPacketToUpperLayer:vector(packetBytes)  ETV
attr interpolationmode  none
attr source  sentPacketToUpperLayer
vector 80  CAIN.eNodeB.nic.pdcpRrc  receivedPacketFromUpperLayer:vector(packetBytes)  ETV
attr interpolationmode  none
attr source  receivedPacketFromUpperLayer
vector 83  CAIN.eNodeB.nic.pdcpRrc  sentPacketToLowerLayer:vector(packetBytes)  ETV
attr interpolationmode  none
attr source  sentPacketToLowerLayer
vector 84  CAIN.eNodeB.nic.mac  receivedPacketFromUpperLayer:vector(packetBytes)  ETV
attr interpolationmode  none
attr source  receivedPacketFromUpperLayer
vector 88  CAIN.eNodeB.nic.mac  measuredItbs:vector  ETV
attr source  measuredItbs
attr title  "TBS index, vector"
attr unit  ""
vector 135  CAIN.ueD2DTx[0].nic.phy  averageCqiDlvect:vector  ETV
attr source  averageCqiDlvect
attr title  "Average Cqi reported in DL, vector"
attr unit  cqi
vector 231  CAIN.ueD2DTx[4].nic.mac  sentPacketToUpperLayer:vector(packetBytes)  ETV
attr interpolationmode  none
attr source  sentPacketToUpperLayer
vector 123  CAIN.ueD2DTx[0].nic.mac  sentPacketToUpperLayer:vector(packetBytes)  ETV
attr interpolationmode  none
attr source  sentPacketToUpperLayer
vector 118  CAIN.ueD2DTx[0].nic.pdcpRrc  receivedPacketFromLowerLayer:vector(packetBytes)  ETV
attr interpolationmode  none
attr source  receivedPacketFromLowerLayer
vector 119  CAIN.ueD2DTx[0].nic.pdcpRrc  sentPacketToUpperLayer:vector(packetBytes)  ETV
attr interpolationmode  none
attr source  sentPacketToUpperLayer
vector 216  CAIN.ueD2DTx[3].nic.phy  averageCqiDlvect:vector  ETV
attr source  averageCqiDlvect
attr title  "Average Cqi reported in DL, vector"
attr unit  cqi
vector 199  CAIN.ueD2DTx[3].nic.pdcpRrc  receivedPacketFromLowerLayer:vector(packetBytes)  ETV
attr interpolationmode  none
attr source  receivedPacketFromLowerLayer
vector 200  CAIN.ueD2DTx[3].nic.pdcpRrc  sentPacketToUpperLayer:vector(packetBytes)  ETV
attr interpolationmode  none
attr source  sentPacketToUpperLayer
vector 312  CAIN.ueD2DTx[1].tcp  tcpRcvQueueBytes  ETV
vector 299  CAIN.ueD2DTx[1].tcp  "advertised window"  ETV
vector 298  CAIN.ueD2DTx[1].tcp  "receive window"  ETV
vector 301  CAIN.ueD2DTx[1].tcp  "sent ack"  ETV
vector 144  CAIN.ueD2DTx[1].nic.pdcpRrc  receivedPacketFromUpperLayer:vector(packetBytes)  ETV
attr interpolationmode  none
attr source  receivedPacketFromUpperLayer
vector 147  CAIN.ueD2DTx[1].nic.pdcpRrc  sentPacketToLowerLayer:vector(packetBytes)  ETV
attr interpolationmode  none
attr source  sentPacketToLowerLayer
vector 148  CAIN.ueD2DTx[1].nic.mac  receivedPacketFromUpperLayer:vector(packetBytes)  ETV
attr interpolationmode  none
attr source  receivedPacketFromUpperLayer
vector 150  CAIN.ueD2DTx[1].nic.mac  sentPacketToUpperLayer:vector(packetBytes)  ETV
attr interpolationmode  none
attr source  sentPacketToUpperLayer
vector 336  CAIN.ueD2DTx[2].tcp  tcpRcvQueueBytes  ETV
vector 323  CAIN.ueD2DTx[2].tcp  "advertised window"  ETV
vector 322  CAIN.ueD2DTx[2].tcp  "receive window"  ETV
vector 325  CAIN.ueD2DTx[2].tcp  "sent ack"  ETV
vector 171  CAIN.ueD2DTx[2].nic.pdcpRrc  receivedPacketFromUpperLayer:vector(packetBytes)  ETV
attr interpolationmode  none
attr source  receivedPacketFromUpperLayer
vector 174  CAIN.ueD2DTx[2].nic.pdcpRrc  sentPacketToLowerLayer:vector(packetBytes)  ETV
attr interpolationmode  none
attr source  sentPacketToLowerLayer
vector 175  CAIN.ueD2DTx[2].nic.mac  receivedPacketFromUpperLayer:vector(packetBytes)  ETV
attr interpolationmode  none
attr source  receivedPacketFromUpperLayer
vector 243  CAIN.ueD2DTx[4].nic.phy  averageCqiDlvect:vector  ETV
attr source  averageCqiDlvect
attr title  "Average Cqi reported in DL, vector"
attr unit  cqi
vector 177  CAIN.ueD2DTx[2].nic.mac  sentPacketToUpperLayer:vector(packetBytes)  ETV
attr interpolationmode  none
attr source  sentPacketToUpperLayer
vector 226  CAIN.ueD2DTx[4].nic.pdcpRrc  receivedPacketFromLowerLayer:vector(packetBytes)  ETV
attr interpolationmode  none
attr source  receivedPacketFromLowerLayer
vector 227  CAIN.ueD2DTx[4].nic.pdcpRrc  sentPacketToUpperLayer:vector(packetBytes)  ETV
attr interpolationmode  none
attr source  sentPacketToUpperLayer
vector 360  CAIN.ueD2DTx[0].tcp  tcpRcvQueueBytes  ETV
vector 347  CAIN.ueD2DTx[0].tcp  "advertised window"  ETV
vector 346  CAIN.ueD2DTx[0].tcp  "receive window"  ETV
vector 349  CAIN.ueD2DTx[0].tcp  "sent ack"  ETV
vector 117  CAIN.ueD2DTx[0].nic.pdcpRrc  receivedPacketFromUpperLayer:vector(packetBytes)  ETV
attr interpolationmode  none
attr source  receivedPacketFromUpperLayer
vector 120  CAIN.ueD2DTx[0].nic.pdcpRrc  sentPacketToLowerLayer:vector(packetBytes)  ETV
attr interpolationmode  none
attr source  sentPacketToLowerLayer
vector 121  CAIN.ueD2DTx[0].nic.mac  receivedPacketFromUpperLayer:vector(packetBytes)  ETV
attr interpolationmode  none
attr source  receivedPacketFromUpperLayer
8	16974 8 0 0 0 0 1 0 0 0 0
9	16982 8 0 0 0 0 1 0 0 0 0
24	16990 9 0 0 0 0 1 0 0 0 0
25	16999 9 0 0 0 0 1 0 0 0 0
35	17008 9 0 0 0 0 1 0 0 0 0
36	17017 9 0 0 0 0 1 0 0 0 0
56	17026 9 0 0 0 0 1 0 0 0 0
57	17035 9 0 0 0 0 1 0 0 0 0
67	17044 9 0 0 0 0 1 0 0 0 0
68	17053 9 0 0 0 0 1 0 0 0 0
80	17062 260 396 96289 0.025 9.108 15 44 44 660 29040
81	17322 260 391 96284 0.025 9.108 15 45 45 675 30375
82	17582 260 391 96284 0.025 9.108 15 44 44 660 29040
83	17842 260 396 96289 0.025 9.108 15 45 45 675 30375
84	18102 520 399 96308 0.025 9.109 30 45 47 1380 63510
85	18622 141697 60 105561 0.002 9.998 8470 0 0 0 0
86	160319 505 387 96304 0.025 9.109 30 0 47 705 33135
87	160824 1433 236 96314 0.018 9.109 87 0 0 0 0
88	162257 260 410 96304 0.026 9.109 15 26 26 390 10140
89	162517 1569 343 96260 0.022 9.105 90 1 90 4095 247065
91	164086 1668 343 96260 0.022 9.105 90 167 424 29028 10446484
93	165754 1488 343 96260 0.022 9.105 90 1 3 263 777
96	167242 254 236 96138 0.018 9.101 15 1 15 120 1240
97	167496 272 236 96138 0.018 9.101 15 44 223 2014 328862
99	167768 263 340 96247 0.022 9.105 15 13 15 221 3263
104	168031 10 0 0 0 0 1 0 0 0 0
105	168041 10 0 0 0 0 1 0 0 0 0
117	168051 83 1529 96113 0.099324821124 9.099324821124 3 44 44 132 5808
118	168134 52 536 95123 0.03 9.03 3 45 45 135 6075
119	168186 52 536 95123 0.03 9.03 3 44 44 132 5808
120	168238 83 1529 96113 0.099324821124 9.099324821124 3 45 45 135 6075
121	168321 139 1532 96204 0.099324821124 9.104 6 45 47 276 12702
122	168460 886 285 96317 0.02 9.109 51 0 0 0 0
123	169346 105 532 96200 0.03 9.104 6 0 47 141 6627
124	169451 877 285 96210 0.02 9.104 51 0 0 0 0
133	170328 761 285 96197 0.02 9.103 42 1 42 903 25585
134	171089 782 285 96197 0.02 9.103 42 44 153 3768 413558
135	171871 55 454 95041 0.027 9.027 3 15 15 45 675
138	171926 10 0 0 0 0 1 1 1 1 1
144	171936 83 1003 95589 0.071279049073 9.071279049073 3 44 44 132 5808
147	172019 83 1003 95589 0.071279049073 9.071279049073 3 45 45 135 6075
148	172102 139 1006 95686 0.071279049073 9.076 6 45 47 276 12702
149	172241 947 254 96226 0.019 9.104 54 0 0 0 0
150	173188 53 1096 95682 0.076 9.076 3 0 0 0 0
151	173241 1262 254 96226 0.019 9.104 72 0 0 0 0
160	174503 880 254 96226 0.019 9.104 48 1 48 1176 38024
161	175383 907 254 96226 0.019 9.104 48 0 223 6303 1231051
165	176290 10 0 0 0 0 1 1 1 1 1
171	176300 83 1203 95788 0.080167830698 9.080167830698 3 44 44 132 5808
174	176383 83 1203 95788 0.080167830698 9.080167830698 3 45 45 135 6075
175	176466 139 1206 95885 0.080167830698 9.085 6 45 47 276 12702
176	176605 944 258 96232 0.019 9.104 54 0 0 0 0
177	177549 53 1296 95881 0.085 9.085 3 0 0 0 0
178	177602 1262 258 96232 0.019 9.104 72 0 0 0 0
187	178864 880 258 96232 0.019 9.104 48 1 48 1176 38024
188	179744 907 258 96232 0.019 9.104 48 0 223 6303 1231051
192	180651 10 0 0 0 0 1 1 1 1 1
198	180661 82 211 94799 0.016795661252 9.016795661252 3 44 44 132 5808
199	180743 111 643 96359 0.037 9.113 6 45 45 270 12150
200	180854 111 643 96359 0.037 9.113 6 44 44 264 11616
201	180965 82 211 94799 0.016795661252 9.016795661252 3 45 45 135 6075
202	181047 137 214 94898 0.016795661252 9.021 6 45 47 276 12702
203	181184 940 262 96336 0.019 9.11 54 0 0 0 0
204	182124 163 306 96355 0.021 9.113 9 0 47 282 13254
205	182287 1157 219 96355 0.017 9.113 66 0 0 0 0
214	183444 770 262 96238 0.019 9.104 42 1 42 903 25585
215	184214 791 262 96238 0.019 9.104 42 0 223 5071 958035
216	185005 108 609 96335 0.034 9.11 6 15 15 90 1350
219	185113 10 0 0 0 0 1 1 1 1 1
225	185123 82 365 94952 0.023087757584 9.023087757584 3 44 44 132 5808
226	185205 112 1306 96048 0.085 9.094 6 45 45 270 12150
227	185317 112 1306 96048 0.085 9.094 6 44 44 264 11616
228	185429 82 365 94952 0.023087757584 9.023087757584 3 45 45 135 6075
229	185511 137 368 95070 0.023087757584 9.028 6 45 47 276 12702
230	185648 938 288 96194 0.02 9.103 54 0 0 0 0
231	186586 164 479 96044 0.028 9.094 9 0 47 282 13254
232	186750 938 288 96194 0.02 9.103 54 0 0 0 0
241	187688 761 288 96194 0.02 9.103 42 1 42 903 25585
242	188449 782 288 96194 0.02 9.103 42 44 153 3768 413558
243	189231 112 1234 96013 0.082 9.091 6 15 15 90 1350
246	189343 10 0 0 0 0 1 1 1 1 1
250	189353 88 208 94796 0.016795661252 9.016795661252 3 7504 7504 22512 168930048
251	189441 88 208 94796 0.016795661252 9.016795661252 3 7504 7504 22512 168930048
253	189529 79 208 94796 0.016795661252 9.016795661252 3 0 0 0 0
264	189608 79 208 94796 0.016795661252 9.016795661252 3 0 0 0 0
274	189687 88 362 94949 0.023087757584 9.023087757584 3 7504 7504 22512 168930048
275	189775 88 362 94949 0.023087757584 9.023087757584 3 7504 7504 22512 168930048
277	189863 79 362 94949 0.023087757584 9.023087757584 3 0 0 0 0
288	189942 79 362 94949 0.023087757584 9.023087757584 3 0 0 0 0
298	190021 89 1000 95586 0.071279049073 9.071279049073 3 7504 7504 22512 168930048
299	190110 89 1000 95586 0.071279049073 9.071279049073 3 7504 7504 22512 168930048
301	190199 80 1000 95586 0.071279049073 9.071279049073 3 0 0 0 0
312	190279 80 1000 95586 0.071279049073 9.071279049073 3 0 0 0 0
322	190359 89 1200 95785 0.080167830698 9.080167830698 3 7504 7504 22512 168930048
323	190448 89 1200 95785 0.080167830698 9.080167830698 3 7504 7504 22512 168930048
325	190537 80 1200 95785 0.080167830698 9.080167830698 3 0 0 0 0
336	190617 80 1200 95785 0.080167830698 9.080167830698 3 0 0 0 0
346	190697 89 1526 96110 0.099324821124 9.099324821124 3 7504 7504 22512 168930048
347	190786 89 1526 96110 0.099324821124 9.099324821124 3 7504 7504 22512 168930048
349	190875 80 1526 96110 0.099324821124 9.099324821124 3 0 0 0 0
360	190955 80 1526 96110 0.099324821124 9.099324821124 3 0 0 0 0
