file 9651720 1589563169                                         
version 2
run CAIN-34-20200515-14:14:26-16583
attr configname CAIN
attr datetime 20200515-14:14:26
attr dist 200
attr experiment CAIN
attr inifile omnetpp.ini
attr iterationvars "$numUe=25, $pwr=-50, $dist=200, $mob=\"./movements/RWP-0.0.movements\""
attr iterationvars2 "$numUe=25, $pwr=-50, $dist=200, $mob=\"./movements/RWP-0.0.movements\", $repetition=4"
attr measurement "$numUe=25, $pwr=-50, $dist=200, $mob=\"./movements/RWP-0.0.movements\""
attr mob "\"./movements/RWP-0.0.movements\""
attr network lte.simulations.networks.CAIN
attr numUe 25
attr processid 16583
attr pwr -50
attr repetition 4
attr replication #4
attr resultdir results
attr runnumber 34
attr seedset 4
param **.**.amcMode "\"AUTO\""
param **.amcMode "\"D2D\""
param **.cainNetwork true
param **.channelControl.alpha 1.0
param **.channelControl.carrierFrequency 2100e+6Hz
param **.channelControl.pMax 10W
param **.d2dCqi 7
param **.deployer.numRbDl 50
param **.deployer.numRbUl 50
param **.distThresh ${dist=200}
param **.fbDelay 1
param **.feedbackComputation "xmldoc(\"config_channel.xml\")"
param **.mobility.constraintAreaMaxX 1000m
param **.mobility.constraintAreaMaxY 1000m
param **.mobility.constraintAreaMaxZ 0m
param **.mobility.constraintAreaMinX 0m
param **.mobility.constraintAreaMinY 0m
param **.mobility.constraintAreaMinZ 0m
param **.nic.phy.channelModel "xmldoc(\"config_channel.xml\")"
param **.numBands 50
param **.pwrThresh "${pwr= -50}"
param **.qtdThresh 3
param **.rbAllocationType "\"localized\""
param **.routingRecorder.enabled false
param **.tcpApp[*].tClose -1s
param **.ueD2DTx[*].mobility.changeAngleBy "normal(0deg, 30deg)"
param **.ueD2DTx[*].mobility.changeInterval "normal(5s, 0.1s)"
param **.ueD2DTx[*].mobility.nodeId -1
param **.ueD2DTx[*].mobility.speed "normal(2mps, 0.01mps)"
param **.ueD2DTx[*].mobility.traceFile "${mob=\"./movements/RWP-0.0.movements\",\"./movements/RWP-0.5.movements\",\"./movements/RPGM-0.0.movements\",\"./movements/RPGM-0.5.movements\",\"./movements/RWPRPGM-0.0.movements\",\"./movements/RWPRPGM-0.5.movements\"}"
param **.ueD2DTx[*].mobilityType "\"BonnMotionMobility\""
param **.usePreconfiguredTxParams false
param *.eNodeB*.numX2Apps 1
param *.eNodeB*.x2App[*].server.localPort "5000 + ancestorIndex(1)"
param *.eNodeB.d2dCapable false
param *.eNodeB.mobility.initFromDisplayString false
param *.eNodeB.mobility.initialX 300m
param *.eNodeB.mobility.initialY 300m
param *.eNodeB.nic.phy.enableD2DCqiReporting true
param *.eNodeB.txPower 19952.62315mw
param *.eNodeB.x2App[0].client.connectAddress "\"eNodeB1%x2ppp0\""
param *.eNodeB1.d2dCapable true
param *.eNodeB1.mobility.initFromDisplayString false
param *.eNodeB1.mobility.initialX 700m
param *.eNodeB1.mobility.initialY 300m
param *.eNodeB1.nic.phy.enableD2DCqiReporting true
param *.eNodeB1.txPower 19952.62315mw
param *.eNodeB1.x2App[0].client.connectAddress "\"eNodeB%x2ppp0\""
param *.extCell[*].bandAllocationType "\"FULL_ALLOC\""
param *.extCell[*].bandUtilization 0.5
param *.extCell[*].txDirection "\"ANISOTROPIC\""
param *.extCell[*].txPower 20
param *.extCell[0].position_x 100m
param *.extCell[0].position_y 600m
param *.extCell[0].txAngle 315
param *.extCell[1].position_x 600m
param *.extCell[1].position_y 600m
param *.extCell[1].txAngle 225
param *.numExtCells 2
param *.numUeCell 0
param *.numUeD2DRx 1
param *.numUeD2DTx 1
param *.ue*.macCellId 1
param *.ue*.masterId 1
param *.ue*.mobility.initFromDisplayString false
param *.ue*[0].macCellId 1
param *.ue*[0].masterId 1
param *.ue*[0].mobility.initFromDisplayString false
param *.ueD2D*.numTcpApps 1
param *.ueD2D*[*].d2dCapable true
param *.ueD2D*[0].d2dCapable false
param *.ueD2D*[0].numTcpApps 1
param *.ueD2DRx[0].mobility.initialX 310m
param *.ueD2DRx[0].mobility.initialY 350m
param *.ueD2DRx[0].tcpApp[*].localPort 1000
param *.ueD2DRx[0].tcpApp[*].typename "\"TCPSinkApp\""
param *.ueD2DTx*.nic.d2dPeerAddresses "\"ueD2DTx[1]\""
param *.ueD2DTx*.tcpApp[*].connectAddress "\"ueD2DTx[0]\""
param *.ueD2DTx*.tcpApp[*].localAddress "\"ueD2DTx\""
param *.ueD2DTx*.tcpApp[*].localPort 1000
param *.ueD2DTx*.tcpApp[*].sendBytes 1GiB
param *.ueD2DTx*.tcpApp[*].typename "\"TCPSessionApp\""
param *.ueD2DTx*.tcpApp[0].active true
param *.ueD2DTx*.tcpApp[0].connectPort 1000
param *.ueD2DTx*.tcpApp[0].tOpen uniform(0.010s,0.1s)
param *.ueD2DTx*.tcpApp[0].tSend uniform(0.15s,0.5s)
param *.ueD2DTx[0].mobility.initialX 290m
param *.ueD2DTx[0].mobility.initialY 350m
param *.ueD2DTx[0].tcpApp[*].localPort 1000
param *.ueD2DTx[0].tcpApp[*].sendBytes 1GiB
param *.ueD2DTx[0].tcpApp[*].typename "\"TCPSessionApp\""
param *.ueD2DTx[0].tcpApp[0].active true
param *.ueD2DTx[0].tcpApp[0].connectAddress "\"ueD2DRx[0]\""
param *.ueD2DTx[0].tcpApp[0].connectPort 1000
param *.ueD2DTx[0].tcpApp[0].localAddress "\"ueD2DTx[0]\""
param *.ueD2DTx[0].tcpApp[0].tOpen uniform(0.010s,0.1s)
param *.ueD2DTx[0].tcpApp[0].tSend uniform(0.15s,0.5s)

vector 8  CAIN.server.ppp[0].queue  queueLength:vector  ETV
attr interpolationmode  sample-hold
attr title  "queue length, vector"
vector 9  CAIN.server.ppp[0].ppp  txState:vector  ETV
attr interpolationmode  sample-hold
attr title  "tx state, vector"
vector 24  CAIN.router.ppp[0].queue  queueLength:vector  ETV
attr interpolationmode  sample-hold
attr title  "queue length, vector"
vector 25  CAIN.router.ppp[0].ppp  txState:vector  ETV
attr interpolationmode  sample-hold
attr title  "tx state, vector"
vector 35  CAIN.router.ppp[1].queue  queueLength:vector  ETV
attr interpolationmode  sample-hold
attr title  "queue length, vector"
vector 36  CAIN.router.ppp[1].ppp  txState:vector  ETV
attr interpolationmode  sample-hold
attr title  "tx state, vector"
vector 56  CAIN.pgw.ppp[0].queue  queueLength:vector  ETV
attr interpolationmode  sample-hold
attr title  "queue length, vector"
vector 57  CAIN.pgw.ppp[0].ppp  txState:vector  ETV
attr interpolationmode  sample-hold
attr title  "tx state, vector"
vector 67  CAIN.pgw.ppp[1].queue  queueLength:vector  ETV
attr interpolationmode  sample-hold
attr title  "queue length, vector"
vector 68  CAIN.pgw.ppp[1].ppp  txState:vector  ETV
attr interpolationmode  sample-hold
attr title  "tx state, vector"
vector 78  CAIN.pgw.pppInterface.queue  queueLength:vector  ETV
attr interpolationmode  sample-hold
attr title  "queue length, vector"
vector 79  CAIN.pgw.pppInterface.ppp  txState:vector  ETV
attr interpolationmode  sample-hold
attr title  "tx state, vector"
vector 120  CAIN.eNodeB.pppIf.queue  queueLength:vector  ETV
attr interpolationmode  sample-hold
attr title  "queue length, vector"
vector 121  CAIN.eNodeB.pppIf.ppp  txState:vector  ETV
attr interpolationmode  sample-hold
attr title  "tx state, vector"
vector 131  CAIN.eNodeB.x2ppp[0].queue  queueLength:vector  ETV
attr interpolationmode  sample-hold
attr title  "queue length, vector"
vector 132  CAIN.eNodeB.x2ppp[0].ppp  txState:vector  ETV
attr interpolationmode  sample-hold
attr title  "tx state, vector"
vector 178  CAIN.eNodeB1.pppIf.queue  queueLength:vector  ETV
attr interpolationmode  sample-hold
attr title  "queue length, vector"
vector 179  CAIN.eNodeB1.pppIf.ppp  txState:vector  ETV
attr interpolationmode  sample-hold
attr title  "tx state, vector"
vector 189  CAIN.eNodeB1.x2ppp[0].queue  queueLength:vector  ETV
attr interpolationmode  sample-hold
attr title  "queue length, vector"
vector 190  CAIN.eNodeB1.x2ppp[0].ppp  txState:vector  ETV
attr interpolationmode  sample-hold
attr title  "tx state, vector"
vector 231  CAIN.ueD2DTx[0].nic.phy  servingCell:vector  ETV
attr source  servingCell
attr title  "ID of the serving eNodeB for the UE, vector"
attr unit  ""
vector 263  CAIN.ueD2DTx[1].nic.phy  servingCell:vector  ETV
attr source  servingCell
attr title  "ID of the serving eNodeB for the UE, vector"
attr unit  ""
vector 295  CAIN.ueD2DTx[2].nic.phy  servingCell:vector  ETV
attr source  servingCell
attr title  "ID of the serving eNodeB for the UE, vector"
attr unit  ""
vector 327  CAIN.ueD2DTx[3].nic.phy  servingCell:vector  ETV
attr source  servingCell
attr title  "ID of the serving eNodeB for the UE, vector"
attr unit  ""
vector 359  CAIN.ueD2DTx[4].nic.phy  servingCell:vector  ETV
attr source  servingCell
attr title  "ID of the serving eNodeB for the UE, vector"
attr unit  ""
vector 391  CAIN.ueD2DTx[5].nic.phy  servingCell:vector  ETV
attr source  servingCell
attr title  "ID of the serving eNodeB for the UE, vector"
attr unit  ""
vector 423  CAIN.ueD2DTx[6].nic.phy  servingCell:vector  ETV
attr source  servingCell
attr title  "ID of the serving eNodeB for the UE, vector"
attr unit  ""
vector 455  CAIN.ueD2DTx[7].nic.phy  servingCell:vector  ETV
attr source  servingCell
attr title  "ID of the serving eNodeB for the UE, vector"
attr unit  ""
vector 487  CAIN.ueD2DTx[8].nic.phy  servingCell:vector  ETV
attr source  servingCell
attr title  "ID of the serving eNodeB for the UE, vector"
attr unit  ""
vector 519  CAIN.ueD2DTx[9].nic.phy  servingCell:vector  ETV
attr source  servingCell
attr title  "ID of the serving eNodeB for the UE, vector"
attr unit  ""
vector 551  CAIN.ueD2DTx[10].nic.phy  servingCell:vector  ETV
attr source  servingCell
attr title  "ID of the serving eNodeB for the UE, vector"
attr unit  ""
vector 583  CAIN.ueD2DTx[11].nic.phy  servingCell:vector  ETV
attr source  servingCell
attr title  "ID of the serving eNodeB for the UE, vector"
attr unit  ""
vector 615  CAIN.ueD2DTx[12].nic.phy  servingCell:vector  ETV
attr source  servingCell
attr title  "ID of the serving eNodeB for the UE, vector"
attr unit  ""
vector 647  CAIN.ueD2DTx[13].nic.phy  servingCell:vector  ETV
attr source  servingCell
attr title  "ID of the serving eNodeB for the UE, vector"
attr unit  ""
vector 679  CAIN.ueD2DTx[14].nic.phy  servingCell:vector  ETV
attr source  servingCell
attr title  "ID of the serving eNodeB for the UE, vector"
attr unit  ""
vector 711  CAIN.ueD2DTx[15].nic.phy  servingCell:vector  ETV
attr source  servingCell
attr title  "ID of the serving eNodeB for the UE, vector"
attr unit  ""
vector 743  CAIN.ueD2DTx[16].nic.phy  servingCell:vector  ETV
attr source  servingCell
attr title  "ID of the serving eNodeB for the UE, vector"
attr unit  ""
vector 775  CAIN.ueD2DTx[17].nic.phy  servingCell:vector  ETV
attr source  servingCell
attr title  "ID of the serving eNodeB for the UE, vector"
attr unit  ""
vector 807  CAIN.ueD2DTx[18].nic.phy  servingCell:vector  ETV
attr source  servingCell
attr title  "ID of the serving eNodeB for the UE, vector"
attr unit  ""
vector 839  CAIN.ueD2DTx[19].nic.phy  servingCell:vector  ETV
attr source  servingCell
attr title  "ID of the serving eNodeB for the UE, vector"
attr unit  ""
vector 871  CAIN.ueD2DTx[20].nic.phy  servingCell:vector  ETV
attr source  servingCell
attr title  "ID of the serving eNodeB for the UE, vector"
attr unit  ""
vector 903  CAIN.ueD2DTx[21].nic.phy  servingCell:vector  ETV
attr source  servingCell
attr title  "ID of the serving eNodeB for the UE, vector"
attr unit  ""
vector 935  CAIN.ueD2DTx[22].nic.phy  servingCell:vector  ETV
attr source  servingCell
attr title  "ID of the serving eNodeB for the UE, vector"
attr unit  ""
vector 967  CAIN.ueD2DTx[23].nic.phy  servingCell:vector  ETV
attr source  servingCell
attr title  "ID of the serving eNodeB for the UE, vector"
attr unit  ""
vector 999  CAIN.ueD2DTx[24].nic.phy  servingCell:vector  ETV
attr source  servingCell
attr title  "ID of the serving eNodeB for the UE, vector"
attr unit  ""
vector 1023  CAIN.eNodeB.sctp  "Throughput of Association 3"  ETV
vector 1045  CAIN.eNodeB1.sctp  "Throughput of Association 4"  ETV
vector 1067  CAIN.eNodeB.sctp  "Throughput of Association 1"  ETV
vector 1087  CAIN.eNodeB.sctp  "Fast Recovery State 1:10.0.5.2"  ETV
vector 1116  CAIN.eNodeB1.sctp  "Throughput of Association 2"  ETV
vector 1136  CAIN.eNodeB1.sctp  "Fast Recovery State 2:10.0.5.1"  ETV
vector 128  CAIN.eNodeB.x2ppp[0].queue  rcvdPk:vector(packetBytes)  ETV
attr interpolationmode  none
attr title  "received packets, vector(packetBytes)"
vector 130  CAIN.eNodeB.x2ppp[0].queue  queueingTime:vector  ETV
attr interpolationmode  none
attr title  "queueing time, vector"
vector 186  CAIN.eNodeB1.x2ppp[0].queue  rcvdPk:vector(packetBytes)  ETV
attr interpolationmode  none
attr title  "received packets, vector(packetBytes)"
vector 188  CAIN.eNodeB1.x2ppp[0].queue  queueingTime:vector  ETV
attr interpolationmode  none
attr title  "queueing time, vector"
vector 137  CAIN.eNodeB.x2ppp[0].ppp  rcvdPkFromHL:vector(packetBytes)  ETV
attr interpolationmode  none
attr source  packetReceivedFromUpper
attr title  "packets received from higher layer, vector(packetBytes)"
vector 133  CAIN.eNodeB.x2ppp[0].ppp  txPk:vector(packetBytes)  ETV
attr interpolationmode  none
attr source  packetSentToLower
attr title  "packets transmitted, vector(packetBytes)"
vector 195  CAIN.eNodeB1.x2ppp[0].ppp  rcvdPkFromHL:vector(packetBytes)  ETV
attr interpolationmode  none
attr source  packetReceivedFromUpper
attr title  "packets received from higher layer, vector(packetBytes)"
vector 191  CAIN.eNodeB1.x2ppp[0].ppp  txPk:vector(packetBytes)  ETV
attr interpolationmode  none
attr source  packetSentToLower
attr title  "packets transmitted, vector(packetBytes)"
vector 192  CAIN.eNodeB1.x2ppp[0].ppp  rxPkOk:vector(packetBytes)  ETV
attr interpolationmode  none
attr source  rxPkOk
attr title  "packets received OK, vector(packetBytes)"
vector 196  CAIN.eNodeB1.x2ppp[0].ppp  passedUpPk:vector(packetBytes)  ETV
attr interpolationmode  none
attr source  packetSentToUpper
attr title  "packets passed to higher layer, vector(packetBytes)"
vector 134  CAIN.eNodeB.x2ppp[0].ppp  rxPkOk:vector(packetBytes)  ETV
attr interpolationmode  none
attr source  rxPkOk
attr title  "packets received OK, vector(packetBytes)"
vector 138  CAIN.eNodeB.x2ppp[0].ppp  passedUpPk:vector(packetBytes)  ETV
attr interpolationmode  none
attr source  packetSentToUpper
attr title  "packets passed to higher layer, vector(packetBytes)"
vector 1165  CAIN.eNodeB1.sctp  "Throughput of Association 4"  ETV
vector 1042  CAIN.eNodeB1.sctp  "Peer Rwnd 4"  ETV
vector 1185  CAIN.eNodeB1.sctp  "Fast Recovery State 5:10.0.4.1"  ETV
vector 1212  CAIN.eNodeB1.sctp  "Fast Recovery State 5:10.0.2.2"  ETV
vector 1239  CAIN.eNodeB1.sctp  "Fast Recovery State 5:10.0.5.1"  ETV
vector 1268  CAIN.eNodeB.sctp  "Throughput of Association 3"  ETV
vector 1020  CAIN.eNodeB.sctp  "Peer Rwnd 3"  ETV
vector 1288  CAIN.eNodeB.sctp  "Fast Recovery State 6:10.0.4.2"  ETV
vector 1315  CAIN.eNodeB.sctp  "Fast Recovery State 6:10.0.3.2"  ETV
vector 1342  CAIN.eNodeB.sctp  "Fast Recovery State 6:10.0.5.2"  ETV
vector 1064  CAIN.eNodeB.sctp  "Peer Rwnd 1"  ETV
vector 1369  CAIN.eNodeB.sctp  "Fast Recovery State 1:10.0.4.2"  ETV
vector 1396  CAIN.eNodeB.sctp  "Fast Recovery State 1:10.0.3.2"  ETV
vector 1113  CAIN.eNodeB1.sctp  "Peer Rwnd 2"  ETV
vector 1423  CAIN.eNodeB1.sctp  "Fast Recovery State 2:10.0.4.1"  ETV
vector 1450  CAIN.eNodeB1.sctp  "Fast Recovery State 2:10.0.2.2"  ETV
vector 1195  CAIN.eNodeB1.sctp  "Slow Start Threshold 5:10.0.2.2"  ETV
vector 1196  CAIN.eNodeB1.sctp  "Congestion Window 5:10.0.2.2"  ETV
vector 1197  CAIN.eNodeB1.sctp  "Bandwidth 5:10.0.2.2"  ETV
vector 1200  CAIN.eNodeB1.sctp  "HB Sent 5:10.0.2.2"  ETV
vector 1193  CAIN.eNodeB1.sctp  "RTO 5:10.0.2.2"  ETV
vector 1168  CAIN.eNodeB1.sctp  "Slow Start Threshold 5:10.0.4.1"  ETV
vector 1169  CAIN.eNodeB1.sctp  "Congestion Window 5:10.0.4.1"  ETV
vector 1170  CAIN.eNodeB1.sctp  "Bandwidth 5:10.0.4.1"  ETV
vector 1173  CAIN.eNodeB1.sctp  "HB Sent 5:10.0.4.1"  ETV
vector 1166  CAIN.eNodeB1.sctp  "RTO 5:10.0.4.1"  ETV
vector 1222  CAIN.eNodeB1.sctp  "Slow Start Threshold 5:10.0.5.1"  ETV
vector 1223  CAIN.eNodeB1.sctp  "Congestion Window 5:10.0.5.1"  ETV
vector 1224  CAIN.eNodeB1.sctp  "Bandwidth 5:10.0.5.1"  ETV
vector 1220  CAIN.eNodeB1.sctp  "RTO 5:10.0.5.1"  ETV
vector 1298  CAIN.eNodeB.sctp  "Slow Start Threshold 6:10.0.3.2"  ETV
vector 1299  CAIN.eNodeB.sctp  "Congestion Window 6:10.0.3.2"  ETV
vector 1300  CAIN.eNodeB.sctp  "Bandwidth 6:10.0.3.2"  ETV
vector 1303  CAIN.eNodeB.sctp  "HB Sent 6:10.0.3.2"  ETV
vector 1296  CAIN.eNodeB.sctp  "RTO 6:10.0.3.2"  ETV
vector 1271  CAIN.eNodeB.sctp  "Slow Start Threshold 6:10.0.4.2"  ETV
vector 1272  CAIN.eNodeB.sctp  "Congestion Window 6:10.0.4.2"  ETV
vector 1273  CAIN.eNodeB.sctp  "Bandwidth 6:10.0.4.2"  ETV
vector 1276  CAIN.eNodeB.sctp  "HB Sent 6:10.0.4.2"  ETV
vector 1269  CAIN.eNodeB.sctp  "RTO 6:10.0.4.2"  ETV
vector 1325  CAIN.eNodeB.sctp  "Slow Start Threshold 6:10.0.5.2"  ETV
vector 1326  CAIN.eNodeB.sctp  "Congestion Window 6:10.0.5.2"  ETV
vector 1327  CAIN.eNodeB.sctp  "Bandwidth 6:10.0.5.2"  ETV
vector 1323  CAIN.eNodeB.sctp  "RTO 6:10.0.5.2"  ETV
vector 1076  CAIN.eNodeB.sctp  "HB ACK Sent 1:10.0.5.2"  ETV
vector 1077  CAIN.eNodeB.sctp  "HB Received 1:10.0.5.2"  ETV
vector 1125  CAIN.eNodeB1.sctp  "HB ACK Sent 2:10.0.5.1"  ETV
vector 1126  CAIN.eNodeB1.sctp  "HB Received 2:10.0.5.1"  ETV
vector 1379  CAIN.eNodeB.sctp  "Slow Start Threshold 1:10.0.3.2"  ETV
vector 1380  CAIN.eNodeB.sctp  "Congestion Window 1:10.0.3.2"  ETV
vector 1381  CAIN.eNodeB.sctp  "Bandwidth 1:10.0.3.2"  ETV
vector 1384  CAIN.eNodeB.sctp  "HB Sent 1:10.0.3.2"  ETV
vector 1377  CAIN.eNodeB.sctp  "RTO 1:10.0.3.2"  ETV
vector 1352  CAIN.eNodeB.sctp  "Slow Start Threshold 1:10.0.4.2"  ETV
vector 1353  CAIN.eNodeB.sctp  "Congestion Window 1:10.0.4.2"  ETV
vector 1354  CAIN.eNodeB.sctp  "Bandwidth 1:10.0.4.2"  ETV
vector 1357  CAIN.eNodeB.sctp  "HB Sent 1:10.0.4.2"  ETV
vector 1350  CAIN.eNodeB.sctp  "RTO 1:10.0.4.2"  ETV
vector 1070  CAIN.eNodeB.sctp  "Slow Start Threshold 1:10.0.5.2"  ETV
vector 1071  CAIN.eNodeB.sctp  "Congestion Window 1:10.0.5.2"  ETV
vector 1072  CAIN.eNodeB.sctp  "Bandwidth 1:10.0.5.2"  ETV
vector 1068  CAIN.eNodeB.sctp  "RTO 1:10.0.5.2"  ETV
vector 1433  CAIN.eNodeB1.sctp  "Slow Start Threshold 2:10.0.2.2"  ETV
vector 1434  CAIN.eNodeB1.sctp  "Congestion Window 2:10.0.2.2"  ETV
vector 1435  CAIN.eNodeB1.sctp  "Bandwidth 2:10.0.2.2"  ETV
vector 1438  CAIN.eNodeB1.sctp  "HB Sent 2:10.0.2.2"  ETV
vector 1431  CAIN.eNodeB1.sctp  "RTO 2:10.0.2.2"  ETV
vector 1406  CAIN.eNodeB1.sctp  "Slow Start Threshold 2:10.0.4.1"  ETV
vector 1407  CAIN.eNodeB1.sctp  "Congestion Window 2:10.0.4.1"  ETV
vector 1408  CAIN.eNodeB1.sctp  "Bandwidth 2:10.0.4.1"  ETV
vector 1411  CAIN.eNodeB1.sctp  "HB Sent 2:10.0.4.1"  ETV
vector 1404  CAIN.eNodeB1.sctp  "RTO 2:10.0.4.1"  ETV
vector 1119  CAIN.eNodeB1.sctp  "Slow Start Threshold 2:10.0.5.1"  ETV
vector 1120  CAIN.eNodeB1.sctp  "Congestion Window 2:10.0.5.1"  ETV
vector 1121  CAIN.eNodeB1.sctp  "Bandwidth 2:10.0.5.1"  ETV
vector 1117  CAIN.eNodeB1.sctp  "RTO 2:10.0.5.1"  ETV
vector 1333  CAIN.eNodeB.sctp  "HB ACK Received 6:10.0.5.2"  ETV
vector 1324  CAIN.eNodeB.sctp  "RTT 6:10.0.5.2"  ETV
vector 1230  CAIN.eNodeB1.sctp  "HB ACK Received 5:10.0.5.1"  ETV
vector 1221  CAIN.eNodeB1.sctp  "RTT 5:10.0.5.1"  ETV
vector 1331  CAIN.eNodeB.sctp  "HB ACK Sent 6:10.0.5.2"  ETV
vector 1332  CAIN.eNodeB.sctp  "HB Received 6:10.0.5.2"  ETV
vector 1228  CAIN.eNodeB1.sctp  "HB ACK Sent 5:10.0.5.1"  ETV
vector 1229  CAIN.eNodeB1.sctp  "HB Received 5:10.0.5.1"  ETV
vector 1127  CAIN.eNodeB1.sctp  "HB ACK Received 2:10.0.5.1"  ETV
vector 1118  CAIN.eNodeB1.sctp  "RTT 2:10.0.5.1"  ETV
vector 1078  CAIN.eNodeB.sctp  "HB ACK Received 1:10.0.5.2"  ETV
vector 1069  CAIN.eNodeB.sctp  "RTT 1:10.0.5.2"  ETV
vector 96  CAIN.eNodeB.nic.mac  receivedPacketFromLowerLayer:vector(packetBytes)  ETV
attr interpolationmode  none
attr source  receivedPacketFromLowerLayer
vector 1465  CAIN.eNodeB.sctp  "SendQueue of Association 6"  ETV
vector 1328  CAIN.eNodeB.sctp  "TSN Sent 6:10.0.5.2"  ETV
vector 1335  CAIN.eNodeB.sctp  "Outstanding Bytes 6:10.0.5.2"  ETV
vector 1008  CAIN.eNodeB.sctp  "Outstanding Bytes 3:Total"  ETV
vector 1334  CAIN.eNodeB.sctp  "Queued Sent Bytes 6:10.0.5.2"  ETV
vector 1007  CAIN.eNodeB.sctp  "Queued Sent Bytes 3:Total"  ETV
vector 1123  CAIN.eNodeB1.sctp  "TSN Received 2:10.0.5.1"  ETV
vector 1099  CAIN.eNodeB1.sctp  "Queued Received Bytes 2:Total"  ETV
vector 1095  CAIN.eNodeB1.sctp  "Advertised Receiver Window 2"  ETV
vector 1104  CAIN.eNodeB1.sctp  "Number of Total Gap Blocks Stored 2"  ETV
vector 1105  CAIN.eNodeB1.sctp  "Number of Revokable Gap Blocks Stored 2"  ETV
vector 1106  CAIN.eNodeB1.sctp  "Number of Non-Revokable Gap Blocks Stored 2"  ETV
vector 1107  CAIN.eNodeB1.sctp  "Number of Duplicate TSNs Stored 2"  ETV
vector 1111  CAIN.eNodeB1.sctp  "Length of SACK Sent 2"  ETV
vector 1108  CAIN.eNodeB1.sctp  "Number of Revokable Gap Blocks Sent 2"  ETV
vector 1109  CAIN.eNodeB1.sctp  "Number of Non-Revokable Gap Blocks Sent 2"  ETV
vector 1110  CAIN.eNodeB1.sctp  "Number of Duplicate TSNs Sent 2"  ETV
vector 1115  CAIN.eNodeB1.sctp  "End to End Delay of Association 2"  ETV
vector 199  CAIN.eNodeB1.x2App[0].client  rcvdPk:vector(packetBytes)  ETV
attr interpolationmode  none
attr source  rcvdPk
attr title  "packets received, vector(packetBytes)"
vector 1464  CAIN.eNodeB.sctp  "Number of Gap Blocks in Last SACK of Association 6"  ETV
vector 1009  CAIN.eNodeB.sctp  "Number of Revokable Gap Blocks in SACK 3"  ETV
vector 1010  CAIN.eNodeB.sctp  "Number of Non-Revokable Gap Blocks in SACK 3"  ETV
vector 1345  CAIN.eNodeB.sctp  "TSN Acked CumAck 6:10.0.5.2"  ETV
vector 1311  CAIN.eNodeB.sctp  "Number of Gap Acked Chunks in Last SACK 6:10.0.3.2"  ETV
vector 1312  CAIN.eNodeB.sctp  "Number of Non-Revokable Gap Acked Chunks in Last SACK 6:10.0.3.2"  ETV
vector 1313  CAIN.eNodeB.sctp  "Number of Gap Missed Chunks in Last SACK 6:10.0.3.2"  ETV
vector 1284  CAIN.eNodeB.sctp  "Number of Gap Acked Chunks in Last SACK 6:10.0.4.2"  ETV
vector 1285  CAIN.eNodeB.sctp  "Number of Non-Revokable Gap Acked Chunks in Last SACK 6:10.0.4.2"  ETV
vector 1286  CAIN.eNodeB.sctp  "Number of Gap Missed Chunks in Last SACK 6:10.0.4.2"  ETV
vector 1338  CAIN.eNodeB.sctp  "Number of Gap Acked Chunks in Last SACK 6:10.0.5.2"  ETV
vector 1339  CAIN.eNodeB.sctp  "Number of Non-Revokable Gap Acked Chunks in Last SACK 6:10.0.5.2"  ETV
vector 1340  CAIN.eNodeB.sctp  "Number of Gap Missed Chunks in Last SACK 6:10.0.5.2"  ETV
vector 1019  CAIN.eNodeB.sctp  "Arwnd in Last SACK 3"  ETV
vector 1347  CAIN.eNodeB.sctp  "TSN PseudoCumAck 6:10.0.5.2"  ETV
vector 1348  CAIN.eNodeB.sctp  "TSN RTXPseudoCumAck 6:10.0.5.2"  ETV
vector 1341  CAIN.eNodeB.sctp  "Partial Bytes Acked 6:10.0.5.2"  ETV
vector 1493  CAIN.ueD2DTx[16].tcp  tcpRcvQueueBytes  ETV
vector 1480  CAIN.ueD2DTx[16].tcp  "advertised window"  ETV
vector 1479  CAIN.ueD2DTx[16].tcp  "receive window"  ETV
vector 1482  CAIN.ueD2DTx[16].tcp  "sent ack"  ETV
vector 717  CAIN.ueD2DTx[16].nic.pdcpRrc  receivedPacketFromUpperLayer:vector(packetBytes)  ETV
attr interpolationmode  none
attr source  receivedPacketFromUpperLayer
vector 720  CAIN.ueD2DTx[16].nic.pdcpRrc  sentPacketToLowerLayer:vector(packetBytes)  ETV
attr interpolationmode  none
attr source  sentPacketToLowerLayer
vector 721  CAIN.ueD2DTx[16].nic.mac  receivedPacketFromUpperLayer:vector(packetBytes)  ETV
attr interpolationmode  none
attr source  receivedPacketFromUpperLayer
vector 724  CAIN.ueD2DTx[16].nic.mac  sentPacketToLowerLayer:vector(packetBytes)  ETV
attr interpolationmode  none
attr source  sentPacketToLowerLayer
vector 111  CAIN.eNodeB.nic.mac  racpkt:vector  ETV
attr interpolationmode  none
attr title  "eNB received racpkt message, vector"
vector 112  CAIN.eNodeB.nic.mac  racDistanceSignal:vector  ETV
attr interpolationmode  none
attr title  "Rac distance to enb, vector"
vector 113  CAIN.eNodeB.nic.mac  racServedDevsSignal:vector  ETV
attr interpolationmode  none
attr title  "# of devices served on rac arriavall, vector"
vector 98  CAIN.eNodeB.nic.mac  sentPacketToLowerLayer:vector(packetBytes)  ETV
attr interpolationmode  none
attr source  sentPacketToLowerLayer
vector 722  CAIN.ueD2DTx[16].nic.mac  receivedPacketFromLowerLayer:vector(packetBytes)  ETV
attr interpolationmode  none
attr source  receivedPacketFromLowerLayer
vector 723  CAIN.ueD2DTx[16].nic.mac  sentPacketToUpperLayer:vector(packetBytes)  ETV
attr interpolationmode  none
attr source  sentPacketToUpperLayer
vector 1517  CAIN.ueD2DTx[21].tcp  tcpRcvQueueBytes  ETV
vector 1504  CAIN.ueD2DTx[21].tcp  "advertised window"  ETV
vector 1503  CAIN.ueD2DTx[21].tcp  "receive window"  ETV
vector 1506  CAIN.ueD2DTx[21].tcp  "sent ack"  ETV
vector 877  CAIN.ueD2DTx[21].nic.pdcpRrc  receivedPacketFromUpperLayer:vector(packetBytes)  ETV
attr interpolationmode  none
attr source  receivedPacketFromUpperLayer
vector 880  CAIN.ueD2DTx[21].nic.pdcpRrc  sentPacketToLowerLayer:vector(packetBytes)  ETV
attr interpolationmode  none
attr source  sentPacketToLowerLayer
vector 881  CAIN.ueD2DTx[21].nic.mac  receivedPacketFromUpperLayer:vector(packetBytes)  ETV
attr interpolationmode  none
attr source  receivedPacketFromUpperLayer
vector 891  CAIN.ueD2DTx[21].nic.mac  CainHopMessageSent:vector  ETV
attr interpolationmode  none
attr title  "# of Sent CAIN hop message, vector"
vector 884  CAIN.ueD2DTx[21].nic.mac  sentPacketToLowerLayer:vector(packetBytes)  ETV
attr interpolationmode  none
attr source  sentPacketToLowerLayer
vector 242  CAIN.ueD2DTx[1].nic.mac  receivedPacketFromLowerLayer:vector(packetBytes)  ETV
attr interpolationmode  none
attr source  receivedPacketFromLowerLayer
vector 244  CAIN.ueD2DTx[1].nic.mac  sentPacketToLowerLayer:vector(packetBytes)  ETV
attr interpolationmode  none
attr source  sentPacketToLowerLayer
vector 786  CAIN.ueD2DTx[18].nic.mac  receivedPacketFromLowerLayer:vector(packetBytes)  ETV
attr interpolationmode  none
attr source  receivedPacketFromLowerLayer
vector 788  CAIN.ueD2DTx[18].nic.mac  sentPacketToLowerLayer:vector(packetBytes)  ETV
attr interpolationmode  none
attr source  sentPacketToLowerLayer
vector 106  CAIN.eNodeB.nic.mac  DistanceSignal:vector  ETV
attr interpolationmode  none
attr title  "Distance to enb, vector"
vector 101  CAIN.eNodeB.nic.mac  CainHopMessage:vector  ETV
attr interpolationmode  none
attr title  "eNB received CAIN hop message, vector"
vector 1541  CAIN.ueD2DTx[3].tcp  tcpRcvQueueBytes  ETV
vector 1528  CAIN.ueD2DTx[3].tcp  "advertised window"  ETV
vector 1527  CAIN.ueD2DTx[3].tcp  "receive window"  ETV
vector 1530  CAIN.ueD2DTx[3].tcp  "sent ack"  ETV
vector 301  CAIN.ueD2DTx[3].nic.pdcpRrc  receivedPacketFromUpperLayer:vector(packetBytes)  ETV
attr interpolationmode  none
attr source  receivedPacketFromUpperLayer
vector 304  CAIN.ueD2DTx[3].nic.pdcpRrc  sentPacketToLowerLayer:vector(packetBytes)  ETV
attr interpolationmode  none
attr source  sentPacketToLowerLayer
vector 305  CAIN.ueD2DTx[3].nic.mac  receivedPacketFromUpperLayer:vector(packetBytes)  ETV
attr interpolationmode  none
attr source  receivedPacketFromUpperLayer
vector 315  CAIN.ueD2DTx[3].nic.mac  CainHopMessageSent:vector  ETV
attr interpolationmode  none
attr title  "# of Sent CAIN hop message, vector"
vector 308  CAIN.ueD2DTx[3].nic.mac  sentPacketToLowerLayer:vector(packetBytes)  ETV
attr interpolationmode  none
attr source  sentPacketToLowerLayer
vector 793  CAIN.ueD2DTx[18].nic.mac  DropedHopMessage:vector  ETV
attr interpolationmode  none
attr title  "Droped Hop CAIN message due to RB not available, vector"
vector 1565  CAIN.ueD2DTx[20].tcp  tcpRcvQueueBytes  ETV
vector 1552  CAIN.ueD2DTx[20].tcp  "advertised window"  ETV
vector 1551  CAIN.ueD2DTx[20].tcp  "receive window"  ETV
vector 1554  CAIN.ueD2DTx[20].tcp  "sent ack"  ETV
vector 845  CAIN.ueD2DTx[20].nic.pdcpRrc  receivedPacketFromUpperLayer:vector(packetBytes)  ETV
attr interpolationmode  none
attr source  receivedPacketFromUpperLayer
vector 848  CAIN.ueD2DTx[20].nic.pdcpRrc  sentPacketToLowerLayer:vector(packetBytes)  ETV
attr interpolationmode  none
attr source  sentPacketToLowerLayer
vector 849  CAIN.ueD2DTx[20].nic.mac  receivedPacketFromUpperLayer:vector(packetBytes)  ETV
attr interpolationmode  none
attr source  receivedPacketFromUpperLayer
vector 859  CAIN.ueD2DTx[20].nic.mac  CainHopMessageSent:vector  ETV
attr interpolationmode  none
attr title  "# of Sent CAIN hop message, vector"
vector 852  CAIN.ueD2DTx[20].nic.mac  sentPacketToLowerLayer:vector(packetBytes)  ETV
attr interpolationmode  none
attr source  sentPacketToLowerLayer
vector 914  CAIN.ueD2DTx[22].nic.mac  receivedPacketFromLowerLayer:vector(packetBytes)  ETV
attr interpolationmode  none
attr source  receivedPacketFromLowerLayer
vector 916  CAIN.ueD2DTx[22].nic.mac  sentPacketToLowerLayer:vector(packetBytes)  ETV
attr interpolationmode  none
attr source  sentPacketToLowerLayer
vector 498  CAIN.ueD2DTx[9].nic.mac  receivedPacketFromLowerLayer:vector(packetBytes)  ETV
attr interpolationmode  none
attr source  receivedPacketFromLowerLayer
vector 500  CAIN.ueD2DTx[9].nic.mac  sentPacketToLowerLayer:vector(packetBytes)  ETV
attr interpolationmode  none
attr source  sentPacketToLowerLayer
vector 505  CAIN.ueD2DTx[9].nic.mac  DropedHopMessage:vector  ETV
attr interpolationmode  none
attr title  "Droped Hop CAIN message due to RB not available, vector"
vector 1589  CAIN.ueD2DTx[7].tcp  tcpRcvQueueBytes  ETV
vector 1576  CAIN.ueD2DTx[7].tcp  "advertised window"  ETV
vector 1575  CAIN.ueD2DTx[7].tcp  "receive window"  ETV
vector 1578  CAIN.ueD2DTx[7].tcp  "sent ack"  ETV
vector 429  CAIN.ueD2DTx[7].nic.pdcpRrc  receivedPacketFromUpperLayer:vector(packetBytes)  ETV
attr interpolationmode  none
attr source  receivedPacketFromUpperLayer
vector 432  CAIN.ueD2DTx[7].nic.pdcpRrc  sentPacketToLowerLayer:vector(packetBytes)  ETV
attr interpolationmode  none
attr source  sentPacketToLowerLayer
vector 433  CAIN.ueD2DTx[7].nic.mac  receivedPacketFromUpperLayer:vector(packetBytes)  ETV
attr interpolationmode  none
attr source  receivedPacketFromUpperLayer
vector 442  CAIN.ueD2DTx[7].nic.mac  CainMessageSent:vector  ETV
attr interpolationmode  none
attr title  "# of Sent CAIN message, vector"
vector 436  CAIN.ueD2DTx[7].nic.mac  sentPacketToLowerLayer:vector(packetBytes)  ETV
attr interpolationmode  none
attr source  sentPacketToLowerLayer
vector 1613  CAIN.ueD2DTx[18].tcp  tcpRcvQueueBytes  ETV
vector 1600  CAIN.ueD2DTx[18].tcp  "advertised window"  ETV
vector 1599  CAIN.ueD2DTx[18].tcp  "receive window"  ETV
vector 1602  CAIN.ueD2DTx[18].tcp  "sent ack"  ETV
vector 781  CAIN.ueD2DTx[18].nic.pdcpRrc  receivedPacketFromUpperLayer:vector(packetBytes)  ETV
attr interpolationmode  none
attr source  receivedPacketFromUpperLayer
vector 784  CAIN.ueD2DTx[18].nic.pdcpRrc  sentPacketToLowerLayer:vector(packetBytes)  ETV
attr interpolationmode  none
attr source  sentPacketToLowerLayer
vector 785  CAIN.ueD2DTx[18].nic.mac  receivedPacketFromUpperLayer:vector(packetBytes)  ETV
attr interpolationmode  none
attr source  receivedPacketFromUpperLayer
vector 100  CAIN.eNodeB.nic.mac  CainMessage:vector  ETV
attr interpolationmode  none
attr title  "eNB received CAIN message, vector"
vector 108  CAIN.eNodeB.nic.mac  ServedDevs:vector  ETV
attr interpolationmode  none
attr title  "# of devices served on cain forwarding, vector"
vector 1637  CAIN.ueD2DTx[10].tcp  tcpRcvQueueBytes  ETV
vector 1624  CAIN.ueD2DTx[10].tcp  "advertised window"  ETV
vector 1623  CAIN.ueD2DTx[10].tcp  "receive window"  ETV
vector 1626  CAIN.ueD2DTx[10].tcp  "sent ack"  ETV
vector 525  CAIN.ueD2DTx[10].nic.pdcpRrc  receivedPacketFromUpperLayer:vector(packetBytes)  ETV
attr interpolationmode  none
attr source  receivedPacketFromUpperLayer
vector 528  CAIN.ueD2DTx[10].nic.pdcpRrc  sentPacketToLowerLayer:vector(packetBytes)  ETV
attr interpolationmode  none
attr source  sentPacketToLowerLayer
vector 529  CAIN.ueD2DTx[10].nic.mac  receivedPacketFromUpperLayer:vector(packetBytes)  ETV
attr interpolationmode  none
attr source  receivedPacketFromUpperLayer
vector 532  CAIN.ueD2DTx[10].nic.mac  sentPacketToLowerLayer:vector(packetBytes)  ETV
attr interpolationmode  none
attr source  sentPacketToLowerLayer
vector 787  CAIN.ueD2DTx[18].nic.mac  sentPacketToUpperLayer:vector(packetBytes)  ETV
attr interpolationmode  none
attr source  sentPacketToUpperLayer
vector 109  CAIN.eNodeB.nic.mac  ServedHopDevs:vector  ETV
attr interpolationmode  none
attr title  "# of devices served on hop forwarding, vector"
vector 530  CAIN.ueD2DTx[10].nic.mac  receivedPacketFromLowerLayer:vector(packetBytes)  ETV
attr interpolationmode  none
attr source  receivedPacketFromLowerLayer
vector 531  CAIN.ueD2DTx[10].nic.mac  sentPacketToUpperLayer:vector(packetBytes)  ETV
attr interpolationmode  none
attr source  sentPacketToUpperLayer
vector 1661  CAIN.ueD2DTx[8].tcp  tcpRcvQueueBytes  ETV
vector 1648  CAIN.ueD2DTx[8].tcp  "advertised window"  ETV
vector 1647  CAIN.ueD2DTx[8].tcp  "receive window"  ETV
vector 1650  CAIN.ueD2DTx[8].tcp  "sent ack"  ETV
vector 461  CAIN.ueD2DTx[8].nic.pdcpRrc  receivedPacketFromUpperLayer:vector(packetBytes)  ETV
attr interpolationmode  none
attr source  receivedPacketFromUpperLayer
vector 464  CAIN.ueD2DTx[8].nic.pdcpRrc  sentPacketToLowerLayer:vector(packetBytes)  ETV
attr interpolationmode  none
attr source  sentPacketToLowerLayer
vector 465  CAIN.ueD2DTx[8].nic.mac  receivedPacketFromUpperLayer:vector(packetBytes)  ETV
attr interpolationmode  none
attr source  receivedPacketFromUpperLayer
vector 1685  CAIN.ueD2DTx[9].tcp  tcpRcvQueueBytes  ETV
vector 1672  CAIN.ueD2DTx[9].tcp  "advertised window"  ETV
vector 1671  CAIN.ueD2DTx[9].tcp  "receive window"  ETV
vector 1674  CAIN.ueD2DTx[9].tcp  "sent ack"  ETV
vector 493  CAIN.ueD2DTx[9].nic.pdcpRrc  receivedPacketFromUpperLayer:vector(packetBytes)  ETV
attr interpolationmode  none
attr source  receivedPacketFromUpperLayer
vector 496  CAIN.ueD2DTx[9].nic.pdcpRrc  sentPacketToLowerLayer:vector(packetBytes)  ETV
attr interpolationmode  none
attr source  sentPacketToLowerLayer
vector 497  CAIN.ueD2DTx[9].nic.mac  receivedPacketFromUpperLayer:vector(packetBytes)  ETV
attr interpolationmode  none
attr source  receivedPacketFromUpperLayer
vector 475  CAIN.ueD2DTx[8].nic.mac  CainHopMessageSent:vector  ETV
attr interpolationmode  none
attr title  "# of Sent CAIN hop message, vector"
vector 468  CAIN.ueD2DTx[8].nic.mac  sentPacketToLowerLayer:vector(packetBytes)  ETV
attr interpolationmode  none
attr source  sentPacketToLowerLayer
vector 1709  CAIN.ueD2DTx[14].tcp  tcpRcvQueueBytes  ETV
vector 1696  CAIN.ueD2DTx[14].tcp  "advertised window"  ETV
vector 1695  CAIN.ueD2DTx[14].tcp  "receive window"  ETV
vector 1698  CAIN.ueD2DTx[14].tcp  "sent ack"  ETV
vector 653  CAIN.ueD2DTx[14].nic.pdcpRrc  receivedPacketFromUpperLayer:vector(packetBytes)  ETV
attr interpolationmode  none
attr source  receivedPacketFromUpperLayer
vector 656  CAIN.ueD2DTx[14].nic.pdcpRrc  sentPacketToLowerLayer:vector(packetBytes)  ETV
attr interpolationmode  none
attr source  sentPacketToLowerLayer
vector 657  CAIN.ueD2DTx[14].nic.mac  receivedPacketFromUpperLayer:vector(packetBytes)  ETV
attr interpolationmode  none
attr source  receivedPacketFromUpperLayer
vector 667  CAIN.ueD2DTx[14].nic.mac  CainHopMessageSent:vector  ETV
attr interpolationmode  none
attr title  "# of Sent CAIN hop message, vector"
vector 660  CAIN.ueD2DTx[14].nic.mac  sentPacketToLowerLayer:vector(packetBytes)  ETV
attr interpolationmode  none
attr source  sentPacketToLowerLayer
vector 690  CAIN.ueD2DTx[15].nic.mac  receivedPacketFromLowerLayer:vector(packetBytes)  ETV
attr interpolationmode  none
attr source  receivedPacketFromLowerLayer
vector 692  CAIN.ueD2DTx[15].nic.mac  sentPacketToLowerLayer:vector(packetBytes)  ETV
attr interpolationmode  none
attr source  sentPacketToLowerLayer
vector 1733  CAIN.ueD2DTx[22].tcp  tcpRcvQueueBytes  ETV
vector 1720  CAIN.ueD2DTx[22].tcp  "advertised window"  ETV
vector 1719  CAIN.ueD2DTx[22].tcp  "receive window"  ETV
vector 1722  CAIN.ueD2DTx[22].tcp  "sent ack"  ETV
vector 909  CAIN.ueD2DTx[22].nic.pdcpRrc  receivedPacketFromUpperLayer:vector(packetBytes)  ETV
attr interpolationmode  none
attr source  receivedPacketFromUpperLayer
vector 912  CAIN.ueD2DTx[22].nic.pdcpRrc  sentPacketToLowerLayer:vector(packetBytes)  ETV
attr interpolationmode  none
attr source  sentPacketToLowerLayer
vector 913  CAIN.ueD2DTx[22].nic.mac  receivedPacketFromUpperLayer:vector(packetBytes)  ETV
attr interpolationmode  none
attr source  receivedPacketFromUpperLayer
vector 922  CAIN.ueD2DTx[22].nic.mac  CainMessageSent:vector  ETV
attr interpolationmode  none
attr title  "# of Sent CAIN message, vector"
vector 818  CAIN.ueD2DTx[19].nic.mac  receivedPacketFromLowerLayer:vector(packetBytes)  ETV
attr interpolationmode  none
attr source  receivedPacketFromLowerLayer
vector 820  CAIN.ueD2DTx[19].nic.mac  sentPacketToLowerLayer:vector(packetBytes)  ETV
attr interpolationmode  none
attr source  sentPacketToLowerLayer
vector 499  CAIN.ueD2DTx[9].nic.mac  sentPacketToUpperLayer:vector(packetBytes)  ETV
attr interpolationmode  none
attr source  sentPacketToUpperLayer
vector 825  CAIN.ueD2DTx[19].nic.mac  DropedHopMessage:vector  ETV
attr interpolationmode  none
attr title  "Droped Hop CAIN message due to RB not available, vector"
vector 1461  CAIN.eNodeB1.sctp  "SendQueue of Association 5"  ETV
vector 1225  CAIN.eNodeB1.sctp  "TSN Sent 5:10.0.5.1"  ETV
vector 1232  CAIN.eNodeB1.sctp  "Outstanding Bytes 5:10.0.5.1"  ETV
vector 1030  CAIN.eNodeB1.sctp  "Outstanding Bytes 4:Total"  ETV
vector 1231  CAIN.eNodeB1.sctp  "Queued Sent Bytes 5:10.0.5.1"  ETV
vector 1029  CAIN.eNodeB1.sctp  "Queued Sent Bytes 4:Total"  ETV
vector 1074  CAIN.eNodeB.sctp  "TSN Received 1:10.0.5.2"  ETV
vector 1050  CAIN.eNodeB.sctp  "Queued Received Bytes 1:Total"  ETV
vector 1046  CAIN.eNodeB.sctp  "Advertised Receiver Window 1"  ETV
vector 1055  CAIN.eNodeB.sctp  "Number of Total Gap Blocks Stored 1"  ETV
vector 1056  CAIN.eNodeB.sctp  "Number of Revokable Gap Blocks Stored 1"  ETV
vector 1057  CAIN.eNodeB.sctp  "Number of Non-Revokable Gap Blocks Stored 1"  ETV
vector 1058  CAIN.eNodeB.sctp  "Number of Duplicate TSNs Stored 1"  ETV
vector 1062  CAIN.eNodeB.sctp  "Length of SACK Sent 1"  ETV
vector 1059  CAIN.eNodeB.sctp  "Number of Revokable Gap Blocks Sent 1"  ETV
vector 1060  CAIN.eNodeB.sctp  "Number of Non-Revokable Gap Blocks Sent 1"  ETV
vector 1061  CAIN.eNodeB.sctp  "Number of Duplicate TSNs Sent 1"  ETV
vector 1066  CAIN.eNodeB.sctp  "End to End Delay of Association 1"  ETV
vector 141  CAIN.eNodeB.x2App[0].client  rcvdPk:vector(packetBytes)  ETV
attr interpolationmode  none
attr source  rcvdPk
attr title  "packets received, vector(packetBytes)"
vector 1460  CAIN.eNodeB1.sctp  "Number of Gap Blocks in Last SACK of Association 5"  ETV
vector 1031  CAIN.eNodeB1.sctp  "Number of Revokable Gap Blocks in SACK 4"  ETV
vector 1032  CAIN.eNodeB1.sctp  "Number of Non-Revokable Gap Blocks in SACK 4"  ETV
vector 1242  CAIN.eNodeB1.sctp  "TSN Acked CumAck 5:10.0.5.1"  ETV
vector 1208  CAIN.eNodeB1.sctp  "Number of Gap Acked Chunks in Last SACK 5:10.0.2.2"  ETV
vector 1209  CAIN.eNodeB1.sctp  "Number of Non-Revokable Gap Acked Chunks in Last SACK 5:10.0.2.2"  ETV
vector 1210  CAIN.eNodeB1.sctp  "Number of Gap Missed Chunks in Last SACK 5:10.0.2.2"  ETV
vector 1181  CAIN.eNodeB1.sctp  "Number of Gap Acked Chunks in Last SACK 5:10.0.4.1"  ETV
vector 1182  CAIN.eNodeB1.sctp  "Number of Non-Revokable Gap Acked Chunks in Last SACK 5:10.0.4.1"  ETV
vector 1183  CAIN.eNodeB1.sctp  "Number of Gap Missed Chunks in Last SACK 5:10.0.4.1"  ETV
vector 1235  CAIN.eNodeB1.sctp  "Number of Gap Acked Chunks in Last SACK 5:10.0.5.1"  ETV
vector 1236  CAIN.eNodeB1.sctp  "Number of Non-Revokable Gap Acked Chunks in Last SACK 5:10.0.5.1"  ETV
vector 1237  CAIN.eNodeB1.sctp  "Number of Gap Missed Chunks in Last SACK 5:10.0.5.1"  ETV
vector 1041  CAIN.eNodeB1.sctp  "Arwnd in Last SACK 4"  ETV
vector 1244  CAIN.eNodeB1.sctp  "TSN PseudoCumAck 5:10.0.5.1"  ETV
vector 1245  CAIN.eNodeB1.sctp  "TSN RTXPseudoCumAck 5:10.0.5.1"  ETV
vector 1238  CAIN.eNodeB1.sctp  "Partial Bytes Acked 5:10.0.5.1"  ETV
vector 1757  CAIN.ueD2DTx[4].tcp  tcpRcvQueueBytes  ETV
vector 1744  CAIN.ueD2DTx[4].tcp  "advertised window"  ETV
vector 1743  CAIN.ueD2DTx[4].tcp  "receive window"  ETV
vector 1746  CAIN.ueD2DTx[4].tcp  "sent ack"  ETV
vector 333  CAIN.ueD2DTx[4].nic.pdcpRrc  receivedPacketFromUpperLayer:vector(packetBytes)  ETV
attr interpolationmode  none
attr source  receivedPacketFromUpperLayer
vector 336  CAIN.ueD2DTx[4].nic.pdcpRrc  sentPacketToLowerLayer:vector(packetBytes)  ETV
attr interpolationmode  none
attr source  sentPacketToLowerLayer
vector 337  CAIN.ueD2DTx[4].nic.mac  receivedPacketFromUpperLayer:vector(packetBytes)  ETV
attr interpolationmode  none
attr source  receivedPacketFromUpperLayer
vector 340  CAIN.ueD2DTx[4].nic.mac  sentPacketToLowerLayer:vector(packetBytes)  ETV
attr interpolationmode  none
attr source  sentPacketToLowerLayer
vector 154  CAIN.eNodeB1.nic.mac  receivedPacketFromLowerLayer:vector(packetBytes)  ETV
attr interpolationmode  none
attr source  receivedPacketFromLowerLayer
vector 169  CAIN.eNodeB1.nic.mac  racpkt:vector  ETV
attr interpolationmode  none
attr title  "eNB received racpkt message, vector"
vector 170  CAIN.eNodeB1.nic.mac  racDistanceSignal:vector  ETV
attr interpolationmode  none
attr title  "Rac distance to enb, vector"
vector 171  CAIN.eNodeB1.nic.mac  racServedDevsSignal:vector  ETV
attr interpolationmode  none
attr title  "# of devices served on rac arriavall, vector"
vector 156  CAIN.eNodeB1.nic.mac  sentPacketToLowerLayer:vector(packetBytes)  ETV
attr interpolationmode  none
attr source  sentPacketToLowerLayer
vector 338  CAIN.ueD2DTx[4].nic.mac  receivedPacketFromLowerLayer:vector(packetBytes)  ETV
attr interpolationmode  none
attr source  receivedPacketFromLowerLayer
vector 1781  CAIN.ueD2DTx[6].tcp  tcpRcvQueueBytes  ETV
vector 1768  CAIN.ueD2DTx[6].tcp  "advertised window"  ETV
vector 1767  CAIN.ueD2DTx[6].tcp  "receive window"  ETV
vector 1770  CAIN.ueD2DTx[6].tcp  "sent ack"  ETV
vector 397  CAIN.ueD2DTx[6].nic.pdcpRrc  receivedPacketFromUpperLayer:vector(packetBytes)  ETV
attr interpolationmode  none
attr source  receivedPacketFromUpperLayer
vector 400  CAIN.ueD2DTx[6].nic.pdcpRrc  sentPacketToLowerLayer:vector(packetBytes)  ETV
attr interpolationmode  none
attr source  sentPacketToLowerLayer
vector 401  CAIN.ueD2DTx[6].nic.mac  receivedPacketFromUpperLayer:vector(packetBytes)  ETV
attr interpolationmode  none
attr source  receivedPacketFromUpperLayer
vector 411  CAIN.ueD2DTx[6].nic.mac  CainHopMessageSent:vector  ETV
attr interpolationmode  none
attr title  "# of Sent CAIN hop message, vector"
vector 404  CAIN.ueD2DTx[6].nic.mac  sentPacketToLowerLayer:vector(packetBytes)  ETV
attr interpolationmode  none
attr source  sentPacketToLowerLayer
vector 1805  CAIN.ueD2DTx[13].tcp  tcpRcvQueueBytes  ETV
vector 1792  CAIN.ueD2DTx[13].tcp  "advertised window"  ETV
vector 1791  CAIN.ueD2DTx[13].tcp  "receive window"  ETV
vector 1794  CAIN.ueD2DTx[13].tcp  "sent ack"  ETV
vector 621  CAIN.ueD2DTx[13].nic.pdcpRrc  receivedPacketFromUpperLayer:vector(packetBytes)  ETV
attr interpolationmode  none
attr source  receivedPacketFromUpperLayer
vector 624  CAIN.ueD2DTx[13].nic.pdcpRrc  sentPacketToLowerLayer:vector(packetBytes)  ETV
attr interpolationmode  none
attr source  sentPacketToLowerLayer
vector 625  CAIN.ueD2DTx[13].nic.mac  receivedPacketFromUpperLayer:vector(packetBytes)  ETV
attr interpolationmode  none
attr source  receivedPacketFromUpperLayer
vector 634  CAIN.ueD2DTx[13].nic.mac  CainMessageSent:vector  ETV
attr interpolationmode  none
attr title  "# of Sent CAIN message, vector"
vector 628  CAIN.ueD2DTx[13].nic.mac  sentPacketToLowerLayer:vector(packetBytes)  ETV
attr interpolationmode  none
attr source  sentPacketToLowerLayer
vector 1829  CAIN.ueD2DTx[11].tcp  tcpRcvQueueBytes  ETV
vector 1816  CAIN.ueD2DTx[11].tcp  "advertised window"  ETV
vector 1815  CAIN.ueD2DTx[11].tcp  "receive window"  ETV
vector 1818  CAIN.ueD2DTx[11].tcp  "sent ack"  ETV
vector 557  CAIN.ueD2DTx[11].nic.pdcpRrc  receivedPacketFromUpperLayer:vector(packetBytes)  ETV
attr interpolationmode  none
attr source  receivedPacketFromUpperLayer
vector 560  CAIN.ueD2DTx[11].nic.pdcpRrc  sentPacketToLowerLayer:vector(packetBytes)  ETV
attr interpolationmode  none
attr source  sentPacketToLowerLayer
vector 561  CAIN.ueD2DTx[11].nic.mac  receivedPacketFromUpperLayer:vector(packetBytes)  ETV
attr interpolationmode  none
attr source  receivedPacketFromUpperLayer
vector 564  CAIN.ueD2DTx[11].nic.mac  sentPacketToLowerLayer:vector(packetBytes)  ETV
attr interpolationmode  none
attr source  sentPacketToLowerLayer
vector 1853  CAIN.ueD2DTx[1].tcp  tcpRcvQueueBytes  ETV
vector 1840  CAIN.ueD2DTx[1].tcp  "advertised window"  ETV
vector 1839  CAIN.ueD2DTx[1].tcp  "receive window"  ETV
vector 1842  CAIN.ueD2DTx[1].tcp  "sent ack"  ETV
vector 237  CAIN.ueD2DTx[1].nic.pdcpRrc  receivedPacketFromUpperLayer:vector(packetBytes)  ETV
attr interpolationmode  none
attr source  receivedPacketFromUpperLayer
vector 240  CAIN.ueD2DTx[1].nic.pdcpRrc  sentPacketToLowerLayer:vector(packetBytes)  ETV
attr interpolationmode  none
attr source  sentPacketToLowerLayer
vector 241  CAIN.ueD2DTx[1].nic.mac  receivedPacketFromUpperLayer:vector(packetBytes)  ETV
attr interpolationmode  none
attr source  receivedPacketFromUpperLayer
vector 562  CAIN.ueD2DTx[11].nic.mac  receivedPacketFromLowerLayer:vector(packetBytes)  ETV
attr interpolationmode  none
attr source  receivedPacketFromLowerLayer
vector 1877  CAIN.ueD2DTx[15].tcp  tcpRcvQueueBytes  ETV
vector 1864  CAIN.ueD2DTx[15].tcp  "advertised window"  ETV
vector 1863  CAIN.ueD2DTx[15].tcp  "receive window"  ETV
vector 1866  CAIN.ueD2DTx[15].tcp  "sent ack"  ETV
vector 685  CAIN.ueD2DTx[15].nic.pdcpRrc  receivedPacketFromUpperLayer:vector(packetBytes)  ETV
attr interpolationmode  none
attr source  receivedPacketFromUpperLayer
vector 688  CAIN.ueD2DTx[15].nic.pdcpRrc  sentPacketToLowerLayer:vector(packetBytes)  ETV
attr interpolationmode  none
attr source  sentPacketToLowerLayer
vector 689  CAIN.ueD2DTx[15].nic.mac  receivedPacketFromUpperLayer:vector(packetBytes)  ETV
attr interpolationmode  none
attr source  receivedPacketFromUpperLayer
vector 698  CAIN.ueD2DTx[15].nic.mac  CainMessageSent:vector  ETV
attr interpolationmode  none
attr title  "# of Sent CAIN message, vector"
vector 563  CAIN.ueD2DTx[11].nic.mac  sentPacketToUpperLayer:vector(packetBytes)  ETV
attr interpolationmode  none
attr source  sentPacketToUpperLayer
vector 824  CAIN.ueD2DTx[19].nic.mac  DropedCainMessage:vector  ETV
attr interpolationmode  none
attr title  "Droped CAIN message due to RB not available, vector"
vector 1901  CAIN.ueD2DTx[5].tcp  tcpRcvQueueBytes  ETV
vector 1888  CAIN.ueD2DTx[5].tcp  "advertised window"  ETV
vector 1887  CAIN.ueD2DTx[5].tcp  "receive window"  ETV
vector 1890  CAIN.ueD2DTx[5].tcp  "sent ack"  ETV
vector 365  CAIN.ueD2DTx[5].nic.pdcpRrc  receivedPacketFromUpperLayer:vector(packetBytes)  ETV
attr interpolationmode  none
attr source  receivedPacketFromUpperLayer
vector 368  CAIN.ueD2DTx[5].nic.pdcpRrc  sentPacketToLowerLayer:vector(packetBytes)  ETV
attr interpolationmode  none
attr source  sentPacketToLowerLayer
vector 369  CAIN.ueD2DTx[5].nic.mac  receivedPacketFromUpperLayer:vector(packetBytes)  ETV
attr interpolationmode  none
attr source  receivedPacketFromUpperLayer
vector 378  CAIN.ueD2DTx[5].nic.mac  CainMessageSent:vector  ETV
attr interpolationmode  none
attr title  "# of Sent CAIN message, vector"
vector 372  CAIN.ueD2DTx[5].nic.mac  sentPacketToLowerLayer:vector(packetBytes)  ETV
attr interpolationmode  none
attr source  sentPacketToLowerLayer
vector 1925  CAIN.ueD2DTx[12].tcp  tcpRcvQueueBytes  ETV
vector 1912  CAIN.ueD2DTx[12].tcp  "advertised window"  ETV
vector 1911  CAIN.ueD2DTx[12].tcp  "receive window"  ETV
vector 1914  CAIN.ueD2DTx[12].tcp  "sent ack"  ETV
vector 589  CAIN.ueD2DTx[12].nic.pdcpRrc  receivedPacketFromUpperLayer:vector(packetBytes)  ETV
attr interpolationmode  none
attr source  receivedPacketFromUpperLayer
vector 592  CAIN.ueD2DTx[12].nic.pdcpRrc  sentPacketToLowerLayer:vector(packetBytes)  ETV
attr interpolationmode  none
attr source  sentPacketToLowerLayer
vector 593  CAIN.ueD2DTx[12].nic.mac  receivedPacketFromUpperLayer:vector(packetBytes)  ETV
attr interpolationmode  none
attr source  receivedPacketFromUpperLayer
vector 1949  CAIN.ueD2DTx[0].tcp  tcpRcvQueueBytes  ETV
vector 1936  CAIN.ueD2DTx[0].tcp  "advertised window"  ETV
vector 1935  CAIN.ueD2DTx[0].tcp  "receive window"  ETV
vector 1938  CAIN.ueD2DTx[0].tcp  "sent ack"  ETV
vector 205  CAIN.ueD2DTx[0].nic.pdcpRrc  receivedPacketFromUpperLayer:vector(packetBytes)  ETV
attr interpolationmode  none
attr source  receivedPacketFromUpperLayer
vector 208  CAIN.ueD2DTx[0].nic.pdcpRrc  sentPacketToLowerLayer:vector(packetBytes)  ETV
attr interpolationmode  none
attr source  sentPacketToLowerLayer
vector 209  CAIN.ueD2DTx[0].nic.mac  receivedPacketFromUpperLayer:vector(packetBytes)  ETV
attr interpolationmode  none
attr source  receivedPacketFromUpperLayer
vector 219  CAIN.ueD2DTx[0].nic.mac  CainHopMessageSent:vector  ETV
attr interpolationmode  none
attr title  "# of Sent CAIN hop message, vector"
vector 212  CAIN.ueD2DTx[0].nic.mac  sentPacketToLowerLayer:vector(packetBytes)  ETV
attr interpolationmode  none
attr source  sentPacketToLowerLayer
vector 1973  CAIN.ueD2DTx[17].tcp  tcpRcvQueueBytes  ETV
vector 1960  CAIN.ueD2DTx[17].tcp  "advertised window"  ETV
vector 1959  CAIN.ueD2DTx[17].tcp  "receive window"  ETV
vector 1962  CAIN.ueD2DTx[17].tcp  "sent ack"  ETV
vector 749  CAIN.ueD2DTx[17].nic.pdcpRrc  receivedPacketFromUpperLayer:vector(packetBytes)  ETV
attr interpolationmode  none
attr source  receivedPacketFromUpperLayer
vector 752  CAIN.ueD2DTx[17].nic.pdcpRrc  sentPacketToLowerLayer:vector(packetBytes)  ETV
attr interpolationmode  none
attr source  sentPacketToLowerLayer
vector 753  CAIN.ueD2DTx[17].nic.mac  receivedPacketFromUpperLayer:vector(packetBytes)  ETV
attr interpolationmode  none
attr source  receivedPacketFromUpperLayer
vector 762  CAIN.ueD2DTx[17].nic.mac  CainMessageSent:vector  ETV
attr interpolationmode  none
attr title  "# of Sent CAIN message, vector"
vector 756  CAIN.ueD2DTx[17].nic.mac  sentPacketToLowerLayer:vector(packetBytes)  ETV
attr interpolationmode  none
attr source  sentPacketToLowerLayer
vector 754  CAIN.ueD2DTx[17].nic.mac  receivedPacketFromLowerLayer:vector(packetBytes)  ETV
attr interpolationmode  none
attr source  receivedPacketFromLowerLayer
vector 274  CAIN.ueD2DTx[2].nic.mac  receivedPacketFromLowerLayer:vector(packetBytes)  ETV
attr interpolationmode  none
attr source  receivedPacketFromLowerLayer
vector 276  CAIN.ueD2DTx[2].nic.mac  sentPacketToLowerLayer:vector(packetBytes)  ETV
attr interpolationmode  none
attr source  sentPacketToLowerLayer
vector 1997  CAIN.ueD2DTx[23].tcp  tcpRcvQueueBytes  ETV
vector 1984  CAIN.ueD2DTx[23].tcp  "advertised window"  ETV
vector 1983  CAIN.ueD2DTx[23].tcp  "receive window"  ETV
vector 1986  CAIN.ueD2DTx[23].tcp  "sent ack"  ETV
vector 941  CAIN.ueD2DTx[23].nic.pdcpRrc  receivedPacketFromUpperLayer:vector(packetBytes)  ETV
attr interpolationmode  none
attr source  receivedPacketFromUpperLayer
vector 944  CAIN.ueD2DTx[23].nic.pdcpRrc  sentPacketToLowerLayer:vector(packetBytes)  ETV
attr interpolationmode  none
attr source  sentPacketToLowerLayer
vector 945  CAIN.ueD2DTx[23].nic.mac  receivedPacketFromUpperLayer:vector(packetBytes)  ETV
attr interpolationmode  none
attr source  receivedPacketFromUpperLayer
vector 955  CAIN.ueD2DTx[23].nic.mac  CainHopMessageSent:vector  ETV
attr interpolationmode  none
attr title  "# of Sent CAIN hop message, vector"
vector 948  CAIN.ueD2DTx[23].nic.mac  sentPacketToLowerLayer:vector(packetBytes)  ETV
attr interpolationmode  none
attr source  sentPacketToLowerLayer
vector 2021  CAIN.ueD2DTx[2].tcp  tcpRcvQueueBytes  ETV
vector 2008  CAIN.ueD2DTx[2].tcp  "advertised window"  ETV
vector 2007  CAIN.ueD2DTx[2].tcp  "receive window"  ETV
vector 2010  CAIN.ueD2DTx[2].tcp  "sent ack"  ETV
vector 269  CAIN.ueD2DTx[2].nic.pdcpRrc  receivedPacketFromUpperLayer:vector(packetBytes)  ETV
attr interpolationmode  none
attr source  receivedPacketFromUpperLayer
vector 272  CAIN.ueD2DTx[2].nic.pdcpRrc  sentPacketToLowerLayer:vector(packetBytes)  ETV
attr interpolationmode  none
attr source  sentPacketToLowerLayer
vector 273  CAIN.ueD2DTx[2].nic.mac  receivedPacketFromUpperLayer:vector(packetBytes)  ETV
attr interpolationmode  none
attr source  receivedPacketFromUpperLayer
vector 2045  CAIN.ueD2DTx[24].tcp  tcpRcvQueueBytes  ETV
vector 2032  CAIN.ueD2DTx[24].tcp  "advertised window"  ETV
vector 2031  CAIN.ueD2DTx[24].tcp  "receive window"  ETV
vector 2034  CAIN.ueD2DTx[24].tcp  "sent ack"  ETV
vector 973  CAIN.ueD2DTx[24].nic.pdcpRrc  receivedPacketFromUpperLayer:vector(packetBytes)  ETV
attr interpolationmode  none
attr source  receivedPacketFromUpperLayer
vector 976  CAIN.ueD2DTx[24].nic.pdcpRrc  sentPacketToLowerLayer:vector(packetBytes)  ETV
attr interpolationmode  none
attr source  sentPacketToLowerLayer
vector 977  CAIN.ueD2DTx[24].nic.mac  receivedPacketFromUpperLayer:vector(packetBytes)  ETV
attr interpolationmode  none
attr source  receivedPacketFromUpperLayer
vector 980  CAIN.ueD2DTx[24].nic.mac  sentPacketToLowerLayer:vector(packetBytes)  ETV
attr interpolationmode  none
attr source  sentPacketToLowerLayer
vector 978  CAIN.ueD2DTx[24].nic.mac  receivedPacketFromLowerLayer:vector(packetBytes)  ETV
attr interpolationmode  none
attr source  receivedPacketFromLowerLayer
vector 2069  CAIN.ueD2DTx[19].tcp  tcpRcvQueueBytes  ETV
vector 2056  CAIN.ueD2DTx[19].tcp  "advertised window"  ETV
vector 2055  CAIN.ueD2DTx[19].tcp  "receive window"  ETV
vector 2058  CAIN.ueD2DTx[19].tcp  "sent ack"  ETV
vector 813  CAIN.ueD2DTx[19].nic.pdcpRrc  receivedPacketFromUpperLayer:vector(packetBytes)  ETV
attr interpolationmode  none
attr source  receivedPacketFromUpperLayer
vector 816  CAIN.ueD2DTx[19].nic.pdcpRrc  sentPacketToLowerLayer:vector(packetBytes)  ETV
attr interpolationmode  none
attr source  sentPacketToLowerLayer
vector 817  CAIN.ueD2DTx[19].nic.mac  receivedPacketFromUpperLayer:vector(packetBytes)  ETV
attr interpolationmode  none
attr source  receivedPacketFromUpperLayer
vector 115  CAIN.eNodeB.nic.phy  averageCqiUlvect:vector  ETV
attr source  averageCqiUlvect
attr title  "Average Cqi reported in UL, vector"
attr unit  cqi
vector 819  CAIN.ueD2DTx[19].nic.mac  sentPacketToUpperLayer:vector(packetBytes)  ETV
attr interpolationmode  none
attr source  sentPacketToUpperLayer
vector 339  CAIN.ueD2DTx[4].nic.mac  sentPacketToUpperLayer:vector(packetBytes)  ETV
attr interpolationmode  none
attr source  sentPacketToUpperLayer
vector 243  CAIN.ueD2DTx[1].nic.mac  sentPacketToUpperLayer:vector(packetBytes)  ETV
attr interpolationmode  none
attr source  sentPacketToUpperLayer
vector 603  CAIN.ueD2DTx[12].nic.mac  CainHopMessageSent:vector  ETV
attr interpolationmode  none
attr title  "# of Sent CAIN hop message, vector"
vector 596  CAIN.ueD2DTx[12].nic.mac  sentPacketToLowerLayer:vector(packetBytes)  ETV
attr interpolationmode  none
attr source  sentPacketToLowerLayer
vector 275  CAIN.ueD2DTx[2].nic.mac  sentPacketToUpperLayer:vector(packetBytes)  ETV
attr interpolationmode  none
attr source  sentPacketToUpperLayer
vector 691  CAIN.ueD2DTx[15].nic.mac  sentPacketToUpperLayer:vector(packetBytes)  ETV
attr interpolationmode  none
attr source  sentPacketToUpperLayer
vector 370  CAIN.ueD2DTx[5].nic.mac  receivedPacketFromLowerLayer:vector(packetBytes)  ETV
attr interpolationmode  none
attr source  receivedPacketFromLowerLayer
vector 376  CAIN.ueD2DTx[5].nic.mac  DropedCainMessage:vector  ETV
attr interpolationmode  none
attr title  "Droped CAIN message due to RB not available, vector"
vector 371  CAIN.ueD2DTx[5].nic.mac  sentPacketToUpperLayer:vector(packetBytes)  ETV
attr interpolationmode  none
attr source  sentPacketToUpperLayer
1268	55780 24 175 175 0.0000001228 0.0000001228 1 0 0 0 0
1379	55804 28 260 260 0.0000006304 0.0000006304 1 65535 65535 65535 4294836225
1380	55832 27 260 260 0.0000006304 0.0000006304 1 8940 8940 8940 79923600
1381	55859 29 260 260 0.0000006304 0.0000006304 1 0.3725 0.3725 0.3725 0.13875625
1377	55888 24 260 260 0.0000006304 0.0000006304 1 3 3 3 9
1384	55912 24 260 260 0.0000006304 0.0000006304 1 1 1 1 1
1396	55936 24 188 188 0.0000003096 0.0000003096 1 0 0 0 0
1352	55960 28 260 260 0.0000006304 0.0000006304 1 65535 65535 65535 4294836225
1353	55988 27 260 260 0.0000006304 0.0000006304 1 8940 8940 8940 79923600
1354	56015 29 260 260 0.0000006304 0.0000006304 1 0.3725 0.3725 0.3725 0.13875625
1350	56044 24 260 260 0.0000006304 0.0000006304 1 3 3 3 9
1357	56068 24 260 260 0.0000006304 0.0000006304 1 1 1 1 1
1369	56092 24 188 188 0.0000003096 0.0000003096 1 0 0 0 0
1070	56116 28 260 260 0.0000006304 0.0000006304 1 65535 65535 65535 4294836225
1071	56144 27 260 260 0.0000006304 0.0000006304 1 8940 8940 8940 79923600
1072	56171 29 260 260 0.0000006304 0.0000006304 1 0.3725 0.3725 0.3725 0.13875625
1068	56200 48 260 327 0.0000006304 0.0000008564 2 1 3 4 10
1069	56248 31 327 327 0.0000008564 0.0000008564 1 2.26e-07 2.26e-07 2.26e-07 5.1076e-14
1074	56279 2080 3939 20572 0.0570000972 0.2570015836 72 2000 2071 146556 298345836
1077	58359 46 232 246 0.000000552 0.000000596 2 1 2 3 5
1076	58405 46 232 246 0.000000552 0.000000596 2 1 2 3 5
1078	58451 48 327 333 0.0000008564 0.0000009004 2 1 2 3 5
1087	58499 13 156 156 0 0 1 0 0 0 0
1046	58512 89 3939 37010 0.0570000972 0.4570015836 3 65533 65535 196603 12884246539
1050	58601 1944 3939 37010 0.0570000972 0.4570015836 75 0 128 146 16588
1055	60545 77 3939 37010 0.0570000972 0.4570015836 3 0 0 0 0
1056	60622 77 3939 37010 0.0570000972 0.4570015836 3 0 0 0 0
1057	60699 77 3939 37010 0.0570000972 0.4570015836 3 0 0 0 0
1058	60776 77 3939 37010 0.0570000972 0.4570015836 3 0 0 0 0
1059	60853 77 3939 37010 0.0570000972 0.4570015836 3 0 0 0 0
1060	60930 77 3939 37010 0.0570000972 0.4570015836 3 0 0 0 0
1061	61007 77 3939 37010 0.0570000972 0.4570015836 3 0 0 0 0
1062	61084 80 3939 37010 0.0570000972 0.4570015836 3 16 16 48 768
1064	61164 28 188 188 0.0000003096 0.0000003096 1 65535 65535 65535 4294836225
1066	61192 2503 3942 20637 0.0570000972 0.2570015836 72 9.72e-08 1.1052e-06 7.21824e-05 7.844462208e-11
1067	63695 13 156 156 0 0 1 0 0 0 0
1298	63708 27 203 203 0.000000458 0.000000458 1 65535 65535 65535 4294836225
1299	63735 26 203 203 0.000000458 0.000000458 1 8940 8940 8940 79923600
1300	63761 28 203 203 0.000000458 0.000000458 1 0.3725 0.3725 0.3725 0.13875625
1296	63789 23 203 203 0.000000458 0.000000458 1 3 3 3 9
1303	63812 23 203 203 0.000000458 0.000000458 1 1 1 1 1
1311	63835 76 729 32983 0.0070001912 0.4070016776 3 0 0 0 0
1312	63911 76 729 32983 0.0070001912 0.4070016776 3 0 0 0 0
1313	63987 76 729 32983 0.0070001912 0.4070016776 3 0 0 0 0
1315	64063 24 175 175 0.0000001228 0.0000001228 1 0 0 0 0
1271	64087 27 203 203 0.000000458 0.000000458 1 65535 65535 65535 4294836225
1272	64114 26 203 203 0.000000458 0.000000458 1 8940 8940 8940 79923600
1273	64140 28 203 203 0.000000458 0.000000458 1 0.3725 0.3725 0.3725 0.13875625
1269	64168 23 203 203 0.000000458 0.000000458 1 3 3 3 9
1276	64191 23 203 203 0.000000458 0.000000458 1 1 1 1 1
1284	64214 76 729 32983 0.0070001912 0.4070016776 3 0 0 0 0
1285	64290 76 729 32983 0.0070001912 0.4070016776 3 0 0 0 0
1286	64366 76 729 32983 0.0070001912 0.4070016776 3 0 0 0 0
1288	64442 24 175 175 0.0000001228 0.0000001228 1 0 0 0 0
1325	64466 57 203 97395 0.000000458 1.2070004784 2 65535 65535 131070 8589672450
1326	64523 55 203 97395 0.000000458 1.2070004784 2 8940 8940 17880 159847200
1327	64578 58 203 97395 0.000000458 1.2070004784 2 0.3725 23.84 24.2125 568.48435625
1323	64636 123 203 32983 0.000000458 0.4070016776 5 1 3 7 13
1324	64759 138 280 32983 0.0000006744 0.4070016776 4 1.912e-07 0.2000011992 0.400001894 0.080000594561604
1328	64897 2065 674 16254 0.007 0.2070004784 72 2000 2071 146556 298345836
1332	66962 48 298 312 0.0000007624 0.0000008064 2 1 2 3 5
1331	67010 48 298 312 0.0000007624 0.0000008064 2 1 2 3 5
1333	67058 48 280 290 0.0000006744 0.0000007184 2 1 2 3 5
1334	67106 3872 674 32983 0.007 0.4070016776 144 0 128 8292 700064
1335	70978 3872 674 32983 0.007 0.4070016776 144 0 128 8292 700064
1338	74850 76 729 32983 0.0070001912 0.4070016776 3 0 0 0 0
1339	74926 76 729 32983 0.0070001912 0.4070016776 3 0 0 0 0
1340	75002 76 729 32983 0.0070001912 0.4070016776 3 0 0 0 0
1341	75078 76 729 32983 0.0070001912 0.4070016776 3 0 0 0 0
1342	75154 24 175 175 0.0000001228 0.0000001228 1 0 0 0 0
1345	75178 85 729 32983 0.0070001912 0.4070016776 3 2000 2071 6078 12317090
1347	75263 76 729 32983 0.0070001912 0.4070016776 3 0 0 0 0
1348	75339 76 729 32983 0.0070001912 0.4070016776 3 0 0 0 0
1464	75415 76 729 32983 0.0070001912 0.4070016776 3 0 0 0 0
1465	75491 3246 674 16254 0.007 0.2070004784 144 0 64 4146 175016
1008	78737 3872 674 32983 0.007 0.4070016776 144 0 128 8292 700064
1007	82609 3872 674 32983 0.007 0.4070016776 144 0 128 8292 700064
1009	86481 76 729 32983 0.0070001912 0.4070016776 3 0 0 0 0
1010	86557 76 729 32983 0.0070001912 0.4070016776 3 0 0 0 0
1019	86633 88 729 32983 0.0070001912 0.4070016776 3 65533 65535 196603 12884246539
1020	86721 116 175 32983 0.0000001228 0.4070016776 4 65533 65535 262138 17179082764
1023	86837 13 148 148 0 0 1 0 0 0 0
1165	86850 24 174 174 0.0000001228 0.0000001228 1 0 0 0 0
1433	86874 28 261 261 0.0000006304 0.0000006304 1 65535 65535 65535 4294836225
1434	86902 27 261 261 0.0000006304 0.0000006304 1 8940 8940 8940 79923600
1435	86929 29 261 261 0.0000006304 0.0000006304 1 0.3725 0.3725 0.3725 0.13875625
1431	86958 24 261 261 0.0000006304 0.0000006304 1 3 3 3 9
1438	86982 24 261 261 0.0000006304 0.0000006304 1 1 1 1 1
1450	87006 24 189 189 0.0000003096 0.0000003096 1 0 0 0 0
1406	87030 28 261 261 0.0000006304 0.0000006304 1 65535 65535 65535 4294836225
1407	87058 27 261 261 0.0000006304 0.0000006304 1 8940 8940 8940 79923600
1408	87085 29 261 261 0.0000006304 0.0000006304 1 0.3725 0.3725 0.3725 0.13875625
1404	87114 24 261 261 0.0000006304 0.0000006304 1 3 3 3 9
1411	87138 24 261 261 0.0000006304 0.0000006304 1 1 1 1 1
1423	87162 24 189 189 0.0000003096 0.0000003096 1 0 0 0 0
1119	87186 28 261 261 0.0000006304 0.0000006304 1 65535 65535 65535 4294836225
1120	87214 27 261 261 0.0000006304 0.0000006304 1 8940 8940 8940 79923600
1121	87241 29 261 261 0.0000006304 0.0000006304 1 0.3725 0.3725 0.3725 0.13875625
1117	87270 48 261 326 0.0000006304 0.0000008564 2 1 3 4 10
1118	87318 31 326 326 0.0000008564 0.0000008564 1 2.26e-07 2.26e-07 2.26e-07 5.1076e-14
1123	87349 2072 717 16261 0.0070000972 0.2070015836 72 2000 2071 146556 298345836
1126	89421 46 233 247 0.000000552 0.000000596 2 1 2 3 5
1125	89467 46 233 247 0.000000552 0.000000596 2 1 2 3 5
1127	89513 48 326 332 0.0000008564 0.0000009004 2 1 2 3 5
1136	89561 13 157 157 0 0 1 0 0 0 0
1095	89574 88 717 32976 0.0070000972 0.4070015836 3 65533 65535 196603 12884246539
1099	89662 1935 717 32976 0.0070000972 0.4070015836 75 0 128 146 16588
1104	91597 76 717 32976 0.0070000972 0.4070015836 3 0 0 0 0
1105	91673 76 717 32976 0.0070000972 0.4070015836 3 0 0 0 0
1106	91749 76 717 32976 0.0070000972 0.4070015836 3 0 0 0 0
1107	91825 76 717 32976 0.0070000972 0.4070015836 3 0 0 0 0
1108	91901 76 717 32976 0.0070000972 0.4070015836 3 0 0 0 0
1109	91977 76 717 32976 0.0070000972 0.4070015836 3 0 0 0 0
1110	92053 76 717 32976 0.0070000972 0.4070015836 3 0 0 0 0
1111	92129 79 717 32976 0.0070000972 0.4070015836 3 16 16 48 768
1113	92208 28 189 189 0.0000003096 0.0000003096 1 65535 65535 65535 4294836225
1115	92236 2495 720 16326 0.0070000972 0.2070015836 72 9.72e-08 1.1052e-06 7.21824e-05 7.844462208e-11
1116	94731 13 157 157 0 0 1 0 0 0 0
1195	94744 27 202 202 0.000000458 0.000000458 1 65535 65535 65535 4294836225
1196	94771 26 202 202 0.000000458 0.000000458 1 8940 8940 8940 79923600
1197	94797 28 202 202 0.000000458 0.000000458 1 0.3725 0.3725 0.3725 0.13875625
1193	94825 23 202 202 0.000000458 0.000000458 1 3 3 3 9
1200	94848 23 202 202 0.000000458 0.000000458 1 1 1 1 1
1208	94871 77 3951 37017 0.0570001912 0.4570016776 3 0 0 0 0
1209	94948 77 3951 37017 0.0570001912 0.4570016776 3 0 0 0 0
1210	95025 77 3951 37017 0.0570001912 0.4570016776 3 0 0 0 0
1212	95102 24 174 174 0.0000001228 0.0000001228 1 0 0 0 0
1168	95126 27 202 202 0.000000458 0.000000458 1 65535 65535 65535 4294836225
1169	95153 26 202 202 0.000000458 0.000000458 1 8940 8940 8940 79923600
1170	95179 28 202 202 0.000000458 0.000000458 1 0.3725 0.3725 0.3725 0.13875625
1166	95207 23 202 202 0.000000458 0.000000458 1 3 3 3 9
1173	95230 23 202 202 0.000000458 0.000000458 1 1 1 1 1
1181	95253 77 3951 37017 0.0570001912 0.4570016776 3 0 0 0 0
1182	95330 77 3951 37017 0.0570001912 0.4570016776 3 0 0 0 0
1183	95407 77 3951 37017 0.0570001912 0.4570016776 3 0 0 0 0
1185	95484 24 174 174 0.0000001228 0.0000001228 1 0 0 0 0
1222	95508 58 202 101439 0.000000458 1.2570004784 2 65535 65535 131070 8589672450
1223	95566 56 202 101439 0.000000458 1.2570004784 2 8940 8940 17880 159847200
1224	95622 59 202 101439 0.000000458 1.2570004784 2 0.3725 23.84 24.2125 568.48435625
1220	95681 124 202 37017 0.000000458 0.4570016776 5 1 3 7 13
1221	95805 139 281 37017 0.0000006744 0.4570016776 4 1.912e-07 0.2000011992 0.400001894 0.080000594561604
1225	95944 2073 3879 20565 0.057 0.2570004784 72 2000 2071 146556 298345836
1229	98017 48 299 313 0.0000007624 0.0000008064 2 1 2 3 5
1228	98065 48 299 313 0.0000007624 0.0000008064 2 1 2 3 5
1230	98113 48 281 291 0.0000006744 0.0000007184 2 1 2 3 5
1231	98161 3881 3879 37017 0.057 0.4570016776 144 0 128 8292 700064
1232	102042 3881 3879 37017 0.057 0.4570016776 144 0 128 8292 700064
1235	105923 77 3951 37017 0.0570001912 0.4570016776 3 0 0 0 0
1236	106000 77 3951 37017 0.0570001912 0.4570016776 3 0 0 0 0
1237	106077 77 3951 37017 0.0570001912 0.4570016776 3 0 0 0 0
1238	106154 77 3951 37017 0.0570001912 0.4570016776 3 0 0 0 0
1239	106231 24 174 174 0.0000001228 0.0000001228 1 0 0 0 0
1242	106255 86 3951 37017 0.0570001912 0.4570016776 3 2000 2071 6078 12317090
1244	106341 77 3951 37017 0.0570001912 0.4570016776 3 0 0 0 0
1245	106418 77 3951 37017 0.0570001912 0.4570016776 3 0 0 0 0
1460	106495 77 3951 37017 0.0570001912 0.4570016776 3 0 0 0 0
1461	106572 3262 3879 20565 0.057 0.2570004784 144 0 64 4146 175016
1030	109834 3881 3879 37017 0.057 0.4570016776 144 0 128 8292 700064
1029	113715 3881 3879 37017 0.057 0.4570016776 144 0 128 8292 700064
1031	117596 77 3951 37017 0.0570001912 0.4570016776 3 0 0 0 0
1032	117673 77 3951 37017 0.0570001912 0.4570016776 3 0 0 0 0
1041	117750 89 3951 37017 0.0570001912 0.4570016776 3 65533 65535 196603 12884246539
1042	117839 117 174 37017 0.0000001228 0.4570016776 4 65533 65535 262138 17179082764
1045	117956 13 153 153 0 0 1 0 0 0 0
8	117969 8 0 0 0 0 1 0 0 0 0
9	117977 8 0 0 0 0 1 0 0 0 0
24	117985 9 0 0 0 0 1 0 0 0 0
25	117994 9 0 0 0 0 1 0 0 0 0
35	118003 9 0 0 0 0 1 0 0 0 0
36	118012 9 0 0 0 0 1 0 0 0 0
56	118021 9 0 0 0 0 1 0 0 0 0
57	118030 9 0 0 0 0 1 0 0 0 0
67	118039 9 0 0 0 0 1 0 0 0 0
68	118048 9 0 0 0 0 1 0 0 0 0
78	118057 9 0 0 0 0 1 0 0 0 0
79	118066 9 0 0 0 0 1 0 0 0 0
96	118075 1239260 418 840563 0.002 10 69892 0 0 0 0
98	1357335 465644 1161 840563 0.014 10 26243 0 0 0 0
100	1822979 179004 2280 840563 0.035 10 8345 1 8345 34823685 193747375445
101	2001983 216783 1830 840282 0.027 9.997 9963 1 9963 49635666 329696638794
106	2218766 758859 1830 840563 0.027 10 36587 96 810 13871632 5795390866
108	2977625 156463 2441 840477 0.037 9.999 8336 1 6 49948 299514
109	3134088 197571 2586 840483 0.039 9.999 9943 5 13 126108 1602150
111	3331659 890602 1161 840563 0.014 10 39565 1 39565 782714395 20645657596915
112	4222261 794425 1161 840563 0.014 10 39565 60 462 4568665 844669313
113	5016686 743448 1161 840563 0.014 10 39565 0 0 0 0
115	5760134 39358 7665 840265 0.102 9.997 1980 2 15 29613 443561
120	5799492 10 0 0 0 0 1 0 0 0 0
121	5799502 10 0 0 0 0 1 0 0 0 0
128	5799512 421 164 37012 0 0.4570015836 18 36 1312 2464 1827680
130	5799933 438 164 37012 0 0.4570015836 18 0 8.8e-08 3.088e-07 1.946112e-14
131	5800371 280 0 283 0 0.0000007124 13 0 2 10 14
132	5800651 828 0 37014 0 0.4570016276 37 0 1 18 18
133	5801479 423 166 37013 0 0.4570015836 18 43 1319 2590 1863058
134	5801902 442 171 32981 0.0000001228 0.4070016776 18 43 1319 2590 1863058
137	5802344 423 166 37013 0 0.4570015836 18 36 1312 2464 1827680
138	5802767 442 171 32981 0.0000001228 0.4070016776 18 36 1312 2464 1827680
141	5803209 1792 3944 20764 0.0570000972 0.2570015836 72 2 2 144 288
154	5805001 247753 4148 840385 0.06 9.998 13284 0 0 0 0
156	6052754 996 4148 764858 0.06 9.113 53 0 0 0 0
169	6053750 540 4148 764821 0.06 9.112 28 1 28 406 7714
170	6054290 577 4148 764821 0.06 9.112 28 237 484 11575 5076029
171	6054867 521 4148 764821 0.06 9.112 28 0 0 0 0
178	6055388 10 0 0 0 0 1 0 0 0 0
179	6055398 10 0 0 0 0 1 0 0 0 0
186	6055408 422 165 32978 0 0.4070015836 18 36 1312 2464 1827680
188	6055830 439 165 32978 0 0.4070015836 18 0 8.8e-08 3.088e-07 1.946112e-14
189	6056269 280 0 282 0 0.0000007124 13 0 2 10 14
190	6056549 830 0 32980 0 0.4070016276 37 0 1 18 18
191	6057379 424 167 32979 0 0.4070015836 18 43 1319 2590 1863058
192	6057803 441 170 37015 0.0000001228 0.4570016776 18 43 1319 2590 1863058
195	6058244 424 167 32979 0 0.4070015836 18 36 1312 2464 1827680
196	6058668 441 170 37015 0.0000001228 0.4570016776 18 36 1312 2464 1827680
199	6059109 1784 722 16453 0.0070000972 0.2070015836 72 2 2 144 288
205	6060893 85 6446 762584 0.088660440601 9.088660440601 3 44 44 132 5808
208	6060978 85 6446 762584 0.088660440601 9.088660440601 3 45 45 135 6075
209	6061063 85 6449 762587 0.088660440601 9.088660440601 3 45 45 135 6075
212	6061148 26294 6452 840425 0.089 9.999 1384 0 0 0 0
219	6087442 29339 6452 840425 0.089 9.999 1384 1 1384 958420 884621660
231	6116781 163 0 7916 0 0.105 10 1 2 19 37
237	6116944 85 4950 760943 0.070868452201 9.070868452201 3 44 44 132 5808
240	6117029 85 4950 760943 0.070868452201 9.070868452201 3 45 45 135 6075
241	6117114 125 4953 761367 0.070868452201 9.075 5 45 47 229 10493
242	6117239 209 1715 761331 0.025 9.074 12 0 0 0 0
243	6117448 38 248045 761363 3.075 9.075 2 0 0 0 0
244	6117486 171 1715 760952 0.025 9.071 10 0 0 0 0
263	6117657 163 0 7917 0 0.105 10 1 2 19 37
269	6117820 85 7038 763212 0.095104090585 9.095104090585 3 44 44 132 5808
272	6117905 85 7038 763212 0.095104090585 9.095104090585 3 45 45 135 6075
273	6117990 363 7041 765053 0.095104090585 9.115 18 0 45 251 7255
274	6118353 79642 6662 840194 0.091 9.996 4192 0 0 0 0
275	6197995 275 250283 765049 3.1 9.115 15 0 0 0 0
276	6198270 79357 6662 840194 0.091 9.996 4177 0 0 0 0
295	6277627 163 0 7918 0 0.105 10 1 2 19 37
301	6277790 85 1836 757169 0.027262016546 9.027262016546 3 44 44 132 5808
304	6277875 85 1836 757169 0.027262016546 9.027262016546 3 45 45 135 6075
305	6277960 85 1839 757172 0.027262016546 9.027262016546 3 45 45 135 6075
308	6278045 37641 1845 840300 0.028 9.998 1995 0 0 0 0
315	6315686 42519 1845 840300 0.028 9.998 1995 1 1995 1991010 2648706970
327	6358205 10 0 0 0 0 1 1 1 1 1
333	6358215 85 4041 759871 0.058969033093 9.058969033093 3 44 44 132 5808
336	6358300 85 4041 759871 0.058969033093 9.058969033093 3 45 45 135 6075
337	6358385 203 4044 761166 0.058969033093 9.073 9 3 45 237 8397
338	6358588 37648 4223 840272 0.061 9.997 1994 0 0 0 0
339	6396236 114 246977 761162 3.063 9.073 6 0 0 0 0
340	6396350 37534 4051 840272 0.059 9.997 1988 0 0 0 0
359	6433884 163 0 7919 0 0.105 10 1 2 19 37
365	6434047 85 5790 761889 0.080385986073 9.080385986073 3 44 44 132 5808
368	6434132 85 5790 761889 0.080385986073 9.080385986073 3 45 45 135 6075
369	6434217 658 5793 765504 0.080385986073 9.12 34 0 45 322 7492
370	6434875 30001 519225 840467 6.209 9.999 1579 0 0 0 0
371	6464876 572 519701 765500 6.215 9.12 31 0 0 0 0
372	6465448 52445 5834 840467 0.081 9.999 2773 0 0 0 0
376	6517893 19 519435 519435 6.211 6.211 1 1 1 1 1
378	6517912 25623 5834 518917 0.081 6.206 1226 1 1226 752151 615008801
391	6543535 10 0 0 0 0 1 1 1 1 1
397	6543545 85 4430 760332 0.063074826114 9.063074826114 3 44 44 132 5808
400	6543630 85 4430 760332 0.063074826114 9.063074826114 3 45 45 135 6075
401	6543715 85 4433 760335 0.063074826114 9.063074826114 3 45 45 135 6075
404	6543800 37522 4442 840432 0.064 9.999 1988 0 0 0 0
411	6581322 42379 4442 840432 0.064 9.999 1988 1 1988 1977066 2620930494
423	6623701 10 0 0 0 0 1 1 1 1 1
429	6623711 85 2156 757623 0.032193433337 9.032193433337 3 44 44 132 5808
432	6623796 85 2156 757623 0.032193433337 9.032193433337 3 45 45 135 6075
433	6623881 85 2159 757626 0.032193433337 9.032193433337 3 45 45 135 6075
436	6623966 37624 2170 840305 0.033 9.998 1994 0 0 0 0
442	6661590 42499 2170 840305 0.033 9.998 1994 1 1994 1989015 2644726945
455	6704089 10 0 0 0 0 1 1 1 1 1
461	6704099 85 2754 758461 0.042654495104 9.042654495104 3 44 44 132 5808
464	6704184 85 2754 758461 0.042654495104 9.042654495104 3 45 45 135 6075
465	6704269 85 2757 758464 0.042654495104 9.042654495104 3 45 45 135 6075
468	6704354 37590 2827 840307 0.043 9.998 1992 0 0 0 0
475	6741944 42459 2827 840307 0.043 9.998 1992 1 1992 1985028 2636778860
487	6784403 10 0 0 0 0 1 1 1 1 1
493	6784413 85 2762 758468 0.042742808261 9.042742808261 3 44 44 132 5808
496	6784498 85 2762 758468 0.042742808261 9.042742808261 3 45 45 135 6075
497	6784583 143 2765 758872 0.042742808261 9.047 6 45 47 276 12702
498	6784726 374810 1975 840554 0.03 10 19921 0 0 0 0
499	7159536 55 3101 758868 0.047 9.047 3 0 0 0 0
500	7159591 374653 1975 840554 0.03 10 19912 0 0 0 0
505	7534244 102 2151 2852 0.032 0.043 6 1 6 21 91
519	7534346 10 0 0 0 0 1 1 1 1 1
525	7534356 85 2446 758017 0.037255783586 9.037255783586 3 44 44 132 5808
528	7534441 85 2446 758017 0.037255783586 9.037255783586 3 45 45 135 6075
529	7534526 201 2449 758877 0.037255783586 9.047 9 19 45 282 9858
530	7534727 92491 2631 758820 0.04 9.046 4920 0 0 0 0
531	7627218 110 2716 758873 0.042 9.047 6 0 0 0 0
532	7627328 92384 2464 758513 0.038 9.043 4914 0 0 0 0
551	7719712 10 0 0 0 0 1 1 1 1 1
557	7719722 85 4803 760800 0.068596436554 9.068596436554 3 44 44 132 5808
560	7719807 85 4803 760800 0.068596436554 9.068596436554 3 45 45 135 6075
561	7719892 2107 4806 790608 0.068596436554 9.408 110 0 45 290 8990
562	7721999 72280 4992 840461 0.071 9.999 3811 0 0 0 0
563	7794279 2015 5141 790604 0.073 9.408 107 0 0 0 0
564	7796294 70265 4853 840461 0.069 9.999 3704 0 0 0 0
583	7866559 10 0 0 0 0 1 1 1 1 1
589	7866569 85 6292 762443 0.086132885579 9.086132885579 3 44 44 132 5808
592	7866654 85 6292 762443 0.086132885579 9.086132885579 3 45 45 135 6075
593	7866739 85 6295 762446 0.086132885579 9.086132885579 3 45 45 135 6075
596	7866824 26277 249095 840247 3.087 9.997 1383 0 0 0 0
603	7893101 29319 249095 840247 3.087 9.997 1383 1 1383 957036 882706204
615	7922420 163 0 7920 0 0.105 10 1 2 19 37
621	7922583 85 4681 760662 0.067512416122 9.067512416122 3 44 44 132 5808
624	7922668 85 4681 760662 0.067512416122 9.067512416122 3 45 45 135 6075
625	7922753 85 4684 760665 0.067512416122 9.067512416122 3 45 45 135 6075
628	7922838 37505 4703 840313 0.068 9.998 1987 0 0 0 0
634	7960343 42359 4703 840313 0.068 9.998 1987 1 1987 1975078 2616978350
647	8002702 10 0 0 0 0 1 1 1 1 1
653	8002712 85 2860 758561 0.043019576671 9.043019576671 3 44 44 132 5808
656	8002797 85 2860 758561 0.043019576671 9.043019576671 3 45 45 135 6075
657	8002882 85 2863 758564 0.043019576671 9.043019576671 3 45 45 135 6075
660	8002967 37590 2880 840441 0.044 9.999 1992 0 0 0 0
667	8040557 42459 2880 840441 0.044 9.999 1992 1 1992 1985028 2636778860
679	8083016 10 0 0 0 0 1 1 1 1 1
685	8083026 85 5015 761031 0.071731106779 9.071731106779 3 44 44 132 5808
688	8083111 85 5015 761031 0.071731106779 9.071731106779 3 45 45 135 6075
689	8083196 15988 5018 840155 0.071731106779 9.996 840 0 45 170 6320
690	8099184 74503 2959 840535 0.044 10 3972 0 0 0 0
691	8173687 15903 484740 840151 5.811 9.996 837 0 0 0 0
692	8189590 80599 2959 840251 0.044 9.997 4281 0 0 0 0
698	8270189 23881 5061 483938 0.072 5.802 1147 1 1147 658378 503659170
711	8294070 10 0 0 0 0 1 1 1 1 1
717	8294080 84 997 755846 0.012314120021 9.012314120021 3 44 44 132 5808
720	8294164 84 997 755846 0.012314120021 9.012314120021 3 45 45 135 6075
721	8294248 160 1000 756236 0.012314120021 9.017 7 4 47 278 12534
722	8294408 7124 1194 756175 0.015 9.016 398 0 0 0 0
723	8301532 72 1244 756232 0.017 9.017 4 0 0 0 0
724	8301604 7053 1068 755897 0.013 9.013 394 0 0 0 0
743	8308657 10 0 0 0 0 1 1 1 1 1
749	8308667 85 6514 762657 0.089070481334 9.089070481334 3 44 44 132 5808
752	8308752 85 6514 762657 0.089070481334 9.089070481334 3 45 45 135 6075
753	8308837 85 6517 762660 0.089070481334 9.089070481334 3 45 45 135 6075
754	8308922 93479 6575 840551 0.09 10 5002 0 0 0 0
756	8402401 118997 6562 840551 0.09 10 6386 0 0 0 0
762	8521398 28563 6562 840521 0.09 10 1384 1 1384 958420 884621660
775	8549961 163 0 7921 0 0.105 10 1 2 19 37
781	8550124 85 2236 757752 0.034967919982 9.034967919982 3 44 44 132 5808
784	8550209 85 2236 757752 0.034967919982 9.034967919982 3 45 45 135 6075
785	8550294 196 2239 758179 0.034967919982 9.039 9 5 47 282 11286
786	8550490 26710 1798 840470 0.026 9.999 1408 0 0 0 0
787	8577200 106 2560 758175 0.039 9.039 6 0 0 0 0
788	8577306 26568 1798 840470 0.026 9.999 1400 0 0 0 0
793	8603874 34 1871 2194 0.028 0.033 2 1 2 3 5
807	8603908 163 0 7922 0 0.105 10 1 2 19 37
813	8604071 85 7453 763630 0.099035166858 9.099035166858 3 44 44 132 5808
816	8604156 85 7453 763630 0.099035166858 9.099035166858 3 45 45 135 6075
817	8604241 143 7456 764038 0.099035166858 9.104 6 45 47 276 12702
818	8604384 116615 3026 840560 0.045 10 6283 0 0 0 0
819	8720999 55 7807 764034 0.104 9.104 3 0 0 0 0
820	8721054 116252 3026 840560 0.045 10 6262 0 0 0 0
824	8837306 98 5392 7535 0.075 0.1 6 1 6 21 91
825	8837404 207 3149 7690 0.047 0.102 12 1 12 78 650
839	8837611 10 0 0 0 0 1 1 1 1 1
845	8837621 85 1876 757235 0.028303043828 9.028303043828 3 44 44 132 5808
848	8837706 85 1876 757235 0.028303043828 9.028303043828 3 45 45 135 6075
849	8837791 85 1879 757238 0.028303043828 9.028303043828 3 45 45 135 6075
852	8837876 37641 1902 840448 0.029 9.999 1995 0 0 0 0
859	8875517 42519 1902 840448 0.029 9.999 1995 1 1995 1991010 2648706970
871	8918036 10 0 0 0 0 1 1 1 1 1
877	8918046 85 1577 756781 0.023785309079 9.023785309079 3 44 44 132 5808
880	8918131 85 1577 756781 0.023785309079 9.023785309079 3 45 45 135 6075
881	8918216 85 1580 756784 0.023785309079 9.023785309079 3 45 45 135 6075
884	8918301 26643 1629 840450 0.024 9.999 1403 0 0 0 0
891	8944944 29745 1629 840450 0.024 9.999 1403 1 1403 984906 921543714
903	8974689 163 0 7923 0 0.105 10 1 2 19 37
909	8974852 85 2973 758704 0.044464713358 9.044464713358 3 44 44 132 5808
912	8974937 85 2973 758704 0.044464713358 9.044464713358 3 45 45 135 6075
913	8975022 85 2976 758707 0.044464713358 9.044464713358 3 45 45 135 6075
914	8975107 162995 1912 840548 0.029 10 8809 0 0 0 0
916	9138102 199471 1912 840548 0.029 10 10801 0 0 0 0
922	9337573 41345 3004 840527 0.045 10 1992 1 1992 1985028 2636778860
935	9378918 10 0 0 0 0 1 1 1 1 1
941	9378928 85 6971 763132 0.094999797184 9.094999797184 3 44 44 132 5808
944	9379013 85 6971 763132 0.094999797184 9.094999797184 3 45 45 135 6075
945	9379098 85 6974 763135 0.094999797184 9.094999797184 3 45 45 135 6075
948	9379183 36311 7001 840529 0.095 10 1982 0 0 0 0
955	9415494 41150 7001 840529 0.095 10 1982 1 1982 1965153 2597277215
967	9456644 10 0 0 0 0 1 1 1 1 1
973	9456654 85 7132 763323 0.096481279186 9.096481279186 3 44 44 132 5808
976	9456739 85 7132 763323 0.096481279186 9.096481279186 3 45 45 135 6075
977	9456824 85 7135 763326 0.096481279186 9.096481279186 3 45 45 135 6075
978	9456909 111066 7437 840537 0.099 10 5941 0 0 0 0
980	9567975 74789 7188 840261 0.097 9.997 3961 0 0 0 0
999	9642764 10 0 0 0 0 1 1 1 1 1
1479	9642774 93 994 755843 0.012314120021 9.012314120021 3 7504 7504 22512 168930048
1480	9642867 93 994 755843 0.012314120021 9.012314120021 3 7504 7504 22512 168930048
1482	9642960 84 994 755843 0.012314120021 9.012314120021 3 0 0 0 0
1493	9643044 84 994 755843 0.012314120021 9.012314120021 3 0 0 0 0
1503	9643128 94 1574 756778 0.023785309079 9.023785309079 3 7504 7504 22512 168930048
1504	9643222 94 1574 756778 0.023785309079 9.023785309079 3 7504 7504 22512 168930048
1506	9643316 85 1574 756778 0.023785309079 9.023785309079 3 0 0 0 0
1517	9643401 85 1574 756778 0.023785309079 9.023785309079 3 0 0 0 0
1527	9643486 94 1833 757166 0.027262016546 9.027262016546 3 7504 7504 22512 168930048
1528	9643580 94 1833 757166 0.027262016546 9.027262016546 3 7504 7504 22512 168930048
1530	9643674 85 1833 757166 0.027262016546 9.027262016546 3 0 0 0 0
1541	9643759 85 1833 757166 0.027262016546 9.027262016546 3 0 0 0 0
1551	9643844 94 1873 757232 0.028303043828 9.028303043828 3 7504 7504 22512 168930048
1552	9643938 94 1873 757232 0.028303043828 9.028303043828 3 7504 7504 22512 168930048
1554	9644032 85 1873 757232 0.028303043828 9.028303043828 3 0 0 0 0
1565	9644117 85 1873 757232 0.028303043828 9.028303043828 3 0 0 0 0
1575	9644202 94 2153 757620 0.032193433337 9.032193433337 3 7504 7504 22512 168930048
1576	9644296 94 2153 757620 0.032193433337 9.032193433337 3 7504 7504 22512 168930048
1578	9644390 85 2153 757620 0.032193433337 9.032193433337 3 0 0 0 0
1589	9644475 85 2153 757620 0.032193433337 9.032193433337 3 0 0 0 0
1599	9644560 94 2233 757749 0.034967919982 9.034967919982 3 7504 7504 22512 168930048
1600	9644654 94 2233 757749 0.034967919982 9.034967919982 3 7504 7504 22512 168930048
1602	9644748 85 2233 757749 0.034967919982 9.034967919982 3 0 0 0 0
1613	9644833 85 2233 757749 0.034967919982 9.034967919982 3 0 0 0 0
1623	9644918 94 2443 758014 0.037255783586 9.037255783586 3 7504 7504 22512 168930048
1624	9645012 94 2443 758014 0.037255783586 9.037255783586 3 7504 7504 22512 168930048
1626	9645106 85 2443 758014 0.037255783586 9.037255783586 3 0 0 0 0
1637	9645191 85 2443 758014 0.037255783586 9.037255783586 3 0 0 0 0
1647	9645276 94 2751 758458 0.042654495104 9.042654495104 3 7504 7504 22512 168930048
1648	9645370 94 2751 758458 0.042654495104 9.042654495104 3 7504 7504 22512 168930048
1650	9645464 85 2751 758458 0.042654495104 9.042654495104 3 0 0 0 0
1661	9645549 85 2751 758458 0.042654495104 9.042654495104 3 0 0 0 0
1671	9645634 94 2759 758465 0.042742808261 9.042742808261 3 7504 7504 22512 168930048
1672	9645728 94 2759 758465 0.042742808261 9.042742808261 3 7504 7504 22512 168930048
1674	9645822 85 2759 758465 0.042742808261 9.042742808261 3 0 0 0 0
1685	9645907 85 2759 758465 0.042742808261 9.042742808261 3 0 0 0 0
1695	9645992 94 2857 758558 0.043019576671 9.043019576671 3 7504 7504 22512 168930048
1696	9646086 94 2857 758558 0.043019576671 9.043019576671 3 7504 7504 22512 168930048
1698	9646180 85 2857 758558 0.043019576671 9.043019576671 3 0 0 0 0
1709	9646265 85 2857 758558 0.043019576671 9.043019576671 3 0 0 0 0
1719	9646350 94 2970 758701 0.044464713358 9.044464713358 3 7504 7504 22512 168930048
1720	9646444 94 2970 758701 0.044464713358 9.044464713358 3 7504 7504 22512 168930048
1722	9646538 85 2970 758701 0.044464713358 9.044464713358 3 0 0 0 0
1733	9646623 85 2970 758701 0.044464713358 9.044464713358 3 0 0 0 0
1743	9646708 94 4038 759868 0.058969033093 9.058969033093 3 7504 7504 22512 168930048
1744	9646802 94 4038 759868 0.058969033093 9.058969033093 3 7504 7504 22512 168930048
1746	9646896 85 4038 759868 0.058969033093 9.058969033093 3 0 0 0 0
1757	9646981 85 4038 759868 0.058969033093 9.058969033093 3 0 0 0 0
1767	9647066 94 4427 760329 0.063074826114 9.063074826114 3 7504 7504 22512 168930048
1768	9647160 94 4427 760329 0.063074826114 9.063074826114 3 7504 7504 22512 168930048
1770	9647254 85 4427 760329 0.063074826114 9.063074826114 3 0 0 0 0
1781	9647339 85 4427 760329 0.063074826114 9.063074826114 3 0 0 0 0
1791	9647424 94 4678 760659 0.067512416122 9.067512416122 3 7504 7504 22512 168930048
1792	9647518 94 4678 760659 0.067512416122 9.067512416122 3 7504 7504 22512 168930048
1794	9647612 85 4678 760659 0.067512416122 9.067512416122 3 0 0 0 0
1805	9647697 85 4678 760659 0.067512416122 9.067512416122 3 0 0 0 0
1815	9647782 94 4800 760797 0.068596436554 9.068596436554 3 7504 7504 22512 168930048
1816	9647876 94 4800 760797 0.068596436554 9.068596436554 3 7504 7504 22512 168930048
1818	9647970 85 4800 760797 0.068596436554 9.068596436554 3 0 0 0 0
1829	9648055 85 4800 760797 0.068596436554 9.068596436554 3 0 0 0 0
1839	9648140 94 4947 760940 0.070868452201 9.070868452201 3 7504 7504 22512 168930048
1840	9648234 94 4947 760940 0.070868452201 9.070868452201 3 7504 7504 22512 168930048
1842	9648328 85 4947 760940 0.070868452201 9.070868452201 3 0 0 0 0
1853	9648413 85 4947 760940 0.070868452201 9.070868452201 3 0 0 0 0
1863	9648498 94 5012 761028 0.071731106779 9.071731106779 3 7504 7504 22512 168930048
1864	9648592 94 5012 761028 0.071731106779 9.071731106779 3 7504 7504 22512 168930048
1866	9648686 85 5012 761028 0.071731106779 9.071731106779 3 0 0 0 0
1877	9648771 85 5012 761028 0.071731106779 9.071731106779 3 0 0 0 0
1887	9648856 94 5787 761886 0.080385986073 9.080385986073 3 7504 7504 22512 168930048
1888	9648950 94 5787 761886 0.080385986073 9.080385986073 3 7504 7504 22512 168930048
1890	9649044 85 5787 761886 0.080385986073 9.080385986073 3 0 0 0 0
1901	9649129 85 5787 761886 0.080385986073 9.080385986073 3 0 0 0 0
1911	9649214 94 6289 762440 0.086132885579 9.086132885579 3 7504 7504 22512 168930048
1912	9649308 94 6289 762440 0.086132885579 9.086132885579 3 7504 7504 22512 168930048
1914	9649402 85 6289 762440 0.086132885579 9.086132885579 3 0 0 0 0
1925	9649487 85 6289 762440 0.086132885579 9.086132885579 3 0 0 0 0
1935	9649572 94 6443 762581 0.088660440601 9.088660440601 3 7504 7504 22512 168930048
1936	9649666 94 6443 762581 0.088660440601 9.088660440601 3 7504 7504 22512 168930048
1938	9649760 85 6443 762581 0.088660440601 9.088660440601 3 0 0 0 0
1949	9649845 85 6443 762581 0.088660440601 9.088660440601 3 0 0 0 0
1959	9649930 94 6511 762654 0.089070481334 9.089070481334 3 7504 7504 22512 168930048
1960	9650024 94 6511 762654 0.089070481334 9.089070481334 3 7504 7504 22512 168930048
1962	9650118 85 6511 762654 0.089070481334 9.089070481334 3 0 0 0 0
1973	9650203 85 6511 762654 0.089070481334 9.089070481334 3 0 0 0 0
1983	9650288 94 6968 763129 0.094999797184 9.094999797184 3 7504 7504 22512 168930048
1984	9650382 94 6968 763129 0.094999797184 9.094999797184 3 7504 7504 22512 168930048
1986	9650476 85 6968 763129 0.094999797184 9.094999797184 3 0 0 0 0
1997	9650561 85 6968 763129 0.094999797184 9.094999797184 3 0 0 0 0
2007	9650646 94 7035 763209 0.095104090585 9.095104090585 3 7504 7504 22512 168930048
2008	9650740 94 7035 763209 0.095104090585 9.095104090585 3 7504 7504 22512 168930048
2010	9650834 85 7035 763209 0.095104090585 9.095104090585 3 0 0 0 0
2021	9650919 85 7035 763209 0.095104090585 9.095104090585 3 0 0 0 0
2031	9651004 94 7129 763320 0.096481279186 9.096481279186 3 7504 7504 22512 168930048
2032	9651098 94 7129 763320 0.096481279186 9.096481279186 3 7504 7504 22512 168930048
2034	9651192 85 7129 763320 0.096481279186 9.096481279186 3 0 0 0 0
2045	9651277 85 7129 763320 0.096481279186 9.096481279186 3 0 0 0 0
2055	9651362 94 7450 763627 0.099035166858 9.099035166858 3 7504 7504 22512 168930048
2056	9651456 94 7450 763627 0.099035166858 9.099035166858 3 7504 7504 22512 168930048
2058	9651550 85 7450 763627 0.099035166858 9.099035166858 3 0 0 0 0
2069	9651635 85 7450 763627 0.099035166858 9.099035166858 3 0 0 0 0
