version 2
run CAIN-34-20200508-17:08:09-16280
attr configname CAIN
attr datetime 20200508-17:08:09
attr dist 200
attr experiment CAIN
attr inifile omnetpp.ini
attr iterationvars "$numUe=25, $pwr=-50, $dist=200, $mob=\"./movements/RWP-0.0.movements\""
attr iterationvars2 "$numUe=25, $pwr=-50, $dist=200, $mob=\"./movements/RWP-0.0.movements\", $repetition=4"
attr measurement "$numUe=25, $pwr=-50, $dist=200, $mob=\"./movements/RWP-0.0.movements\""
attr mob "\"./movements/RWP-0.0.movements\""
attr network lte.simulations.networks.CAIN
attr numUe 25
attr processid 16280
attr pwr -50
attr repetition 4
attr replication #4
attr resultdir results
attr runnumber 34
attr seedset 4
param **.**.amcMode "\"AUTO\""
param **.amcMode "\"D2D\""
param **.cainNetwork true
param **.channelControl.alpha 1.0
param **.channelControl.carrierFrequency 2100e+6Hz
param **.channelControl.pMax 10W
param **.d2dCqi 7
param **.deployer.numRbDl 50
param **.deployer.numRbUl 50
param **.distThresh ${dist=200}
param **.fbDelay 1
param **.feedbackComputation "xmldoc(\"config_channel.xml\")"
param **.mobility.constraintAreaMaxX 1000m
param **.mobility.constraintAreaMaxY 1000m
param **.mobility.constraintAreaMaxZ 0m
param **.mobility.constraintAreaMinX 0m
param **.mobility.constraintAreaMinY 0m
param **.mobility.constraintAreaMinZ 0m
param **.nic.phy.channelModel "xmldoc(\"config_channel.xml\")"
param **.numBands 50
param **.pwrThresh "${pwr= -50}"
param **.qtdThresh 3
param **.rbAllocationType "\"localized\""
param **.routingRecorder.enabled false
param **.tcpApp[*].tClose -1s
param **.ueD2DTx[*].mobility.changeAngleBy "normal(0deg, 30deg)"
param **.ueD2DTx[*].mobility.changeInterval "normal(5s, 0.1s)"
param **.ueD2DTx[*].mobility.nodeId -1
param **.ueD2DTx[*].mobility.speed "normal(2mps, 0.01mps)"
param **.ueD2DTx[*].mobility.traceFile "${mob=\"./movements/RWP-0.0.movements\",\"./movements/RWP-0.5.movements\",\"./movements/RPGM-0.0.movements\",\"./movements/RPGM-0.5.movements\",\"./movements/RWPRPGM-0.0.movements\",\"./movements/RWPRPGM-0.5.movements\"}"
param **.ueD2DTx[*].mobilityType "\"BonnMotionMobility\""
param **.usePreconfiguredTxParams false
param *.eNodeB*.numX2Apps 1
param *.eNodeB*.x2App[*].server.localPort "5000 + ancestorIndex(1)"
param *.eNodeB.d2dCapable false
param *.eNodeB.mobility.initFromDisplayString false
param *.eNodeB.mobility.initialX 300m
param *.eNodeB.mobility.initialY 300m
param *.eNodeB.nic.phy.enableD2DCqiReporting true
param *.eNodeB.txPower 19952.62315mw
param *.eNodeB.x2App[0].client.connectAddress "\"eNodeB1%x2ppp0\""
param *.eNodeB1.d2dCapable true
param *.eNodeB1.mobility.initFromDisplayString false
param *.eNodeB1.mobility.initialX 700m
param *.eNodeB1.mobility.initialY 300m
param *.eNodeB1.nic.phy.enableD2DCqiReporting true
param *.eNodeB1.txPower 19952.62315mw
param *.eNodeB1.x2App[0].client.connectAddress "\"eNodeB%x2ppp0\""
param *.extCell[*].bandAllocationType "\"FULL_ALLOC\""
param *.extCell[*].bandUtilization 0.5
param *.extCell[*].txDirection "\"ANISOTROPIC\""
param *.extCell[*].txPower 20
param *.extCell[0].position_x 100m
param *.extCell[0].position_y 600m
param *.extCell[0].txAngle 315
param *.extCell[1].position_x 600m
param *.extCell[1].position_y 600m
param *.extCell[1].txAngle 225
param *.numExtCells 2
param *.numUeCell 0
param *.numUeD2DRx 1
param *.numUeD2DTx 1
param *.ue*.macCellId 1
param *.ue*.masterId 1
param *.ue*.mobility.initFromDisplayString false
param *.ue*[0].macCellId 1
param *.ue*[0].masterId 1
param *.ue*[0].mobility.initFromDisplayString false
param *.ueD2D*.numTcpApps 1
param *.ueD2D*[*].d2dCapable true
param *.ueD2D*[0].d2dCapable false
param *.ueD2D*[0].numTcpApps 1
param *.ueD2DRx[0].mobility.initialX 310m
param *.ueD2DRx[0].mobility.initialY 350m
param *.ueD2DRx[0].tcpApp[*].localPort 1000
param *.ueD2DRx[0].tcpApp[*].typename "\"TCPSinkApp\""
param *.ueD2DTx*.nic.d2dPeerAddresses "\"ueD2DTx[1]\""
param *.ueD2DTx*.tcpApp[*].connectAddress "\"ueD2DTx[0]\""
param *.ueD2DTx*.tcpApp[*].localAddress "\"ueD2DTx\""
param *.ueD2DTx*.tcpApp[*].localPort 1000
param *.ueD2DTx*.tcpApp[*].sendBytes 1GiB
param *.ueD2DTx*.tcpApp[*].typename "\"TCPSessionApp\""
param *.ueD2DTx*.tcpApp[0].active true
param *.ueD2DTx*.tcpApp[0].connectPort 1000
param *.ueD2DTx*.tcpApp[0].tOpen uniform(0.010s,0.1s)
param *.ueD2DTx*.tcpApp[0].tSend uniform(0.15s,0.5s)
param *.ueD2DTx[0].mobility.initialX 290m
param *.ueD2DTx[0].mobility.initialY 350m
param *.ueD2DTx[0].tcpApp[*].localPort 1000
param *.ueD2DTx[0].tcpApp[*].sendBytes 1GiB
param *.ueD2DTx[0].tcpApp[*].typename "\"TCPSessionApp\""
param *.ueD2DTx[0].tcpApp[0].active true
param *.ueD2DTx[0].tcpApp[0].connectAddress "\"ueD2DRx[0]\""
param *.ueD2DTx[0].tcpApp[0].connectPort 1000
param *.ueD2DTx[0].tcpApp[0].localAddress "\"ueD2DTx[0]\""
param *.ueD2DTx[0].tcpApp[0].tOpen uniform(0.010s,0.1s)
param *.ueD2DTx[0].tcpApp[0].tSend uniform(0.15s,0.5s)
param *.ueD2DTx[1].mobility.initialX 690m
param *.ueD2DTx[1].mobility.initialY 250m

scalar . 	dist 	200
scalar . 	numUe 	25
scalar . 	pwr 	-50
scalar CAIN.eNodeB.x2App[0].client 	ums 	1452
scalar CAIN.eNodeB1.x2App[0].client 	ums 	1452
scalar CAIN.server.networkLayer.arp 	failedARPResolution:count 	0
attr title  "ARP failed resolutions, count"
scalar CAIN.server.networkLayer.arp 	completedARPResolution:count 	0
attr title  "ARP completed resolutions, count"
scalar CAIN.server.networkLayer.arp 	initiatedARPResolution:count 	0
attr title  "ARP initiated resolutions, count"
scalar CAIN.server.networkLayer.arp 	sentReply:count 	0
attr title  "ARP replies sent, count"
scalar CAIN.server.networkLayer.arp 	sentReq:count 	0
attr title  "ARP request sent, count"
scalar CAIN.server.lo0.lo 	droppedPkBitError:count 	0
attr interpolationmode  none
attr source  dropPkBitError
attr title  "packets dropped/bit error, count"
scalar CAIN.server.lo0.lo 	droppedPkBitError:sum(packetBytes) 	0
attr interpolationmode  none
attr source  dropPkBitError
attr title  "packets dropped/bit error, sum(packetBytes)"
scalar CAIN.server.lo0.lo 	rcvdPkFromHL:count 	0
attr interpolationmode  none
attr source  packetReceivedFromUpper
attr title  "packets received from higher layer, count"
scalar CAIN.server.lo0.lo 	rcvdPkFromHL:sum(packetBytes) 	0
attr interpolationmode  none
attr source  packetReceivedFromUpper
attr title  "packets received from higher layer, sum(packetBytes)"
scalar CAIN.server.lo0.lo 	passedUpPk:count 	0
attr interpolationmode  none
attr source  packetSentToUpper
attr title  "packets passed to higher layer, count"
scalar CAIN.server.lo0.lo 	passedUpPk:sum(packetBytes) 	0
attr interpolationmode  none
attr source  packetSentToUpper
attr title  "packets passed to higher layer, sum(packetBytes)"
statistic CAIN.server.ppp[0].queue 	queueingTime:histogram
field count 0
field mean -nan
field stddev -nan
field sum 0
field sqrsum 0
field min -nan
field max -nan
attr interpolationmode  none
attr title  "queueing time, histogram"
bin	-INF	0
bin	-0.5	0
bin	-0.46666666666667	0
bin	-0.43333333333333	0
bin	-0.4	0
bin	-0.36666666666667	0
bin	-0.33333333333333	0
bin	-0.3	0
bin	-0.26666666666667	0
bin	-0.23333333333333	0
bin	-0.2	0
bin	-0.16666666666667	0
bin	-0.13333333333333	0
bin	-0.1	0
bin	-0.066666666666667	0
bin	-0.033333333333333	0
bin	0	0
bin	0.033333333333333	0
bin	0.066666666666667	0
bin	0.1	0
bin	0.13333333333333	0
bin	0.16666666666667	0
bin	0.2	0
bin	0.23333333333333	0
bin	0.26666666666667	0
bin	0.3	0
bin	0.33333333333333	0
bin	0.36666666666667	0
bin	0.4	0
bin	0.43333333333333	0
bin	0.46666666666667	0
bin	0.5	0
scalar CAIN.server.ppp[0].queue 	dropPk:count 	0
attr interpolationmode  none
attr source  dropPkByQueue
attr title  "dropped packets, count"
scalar CAIN.server.ppp[0].queue 	dropPk:sum(packetBytes) 	0
attr interpolationmode  none
attr source  dropPkByQueue
attr title  "dropped packets, sum(packetBytes)"
scalar CAIN.server.ppp[0].queue 	queueLength:max 	0
attr interpolationmode  sample-hold
attr title  "queue length, max"
scalar CAIN.server.ppp[0].queue 	queueLength:timeavg 	0
attr interpolationmode  sample-hold
attr title  "queue length, timeavg"
scalar CAIN.server.ppp[0].queue 	rcvdPk:count 	0
attr interpolationmode  none
attr title  "received packets, count"
scalar CAIN.server.ppp[0].queue 	rcvdPk:sum(packetBytes) 	0
attr interpolationmode  none
attr title  "received packets, sum(packetBytes)"
scalar CAIN.server.ppp[0].ppp 	txState:timeavg 	0
attr interpolationmode  sample-hold
attr title  "tx state, timeavg"
scalar CAIN.server.ppp[0].ppp 	droppedPkIfaceDown:count 	0
attr interpolationmode  none
attr source  dropPkIfaceDown
attr title  "packets dropped/interface down, count"
scalar CAIN.server.ppp[0].ppp 	droppedPkIfaceDown:sum(packetBytes) 	0
attr interpolationmode  none
attr source  dropPkIfaceDown
attr title  "packets dropped/interface down, sum(packetBytes)"
scalar CAIN.server.ppp[0].ppp 	droppedPkBitError:count 	0
attr interpolationmode  none
attr source  dropPkBitError
attr title  "packets dropped/bit error, count"
scalar CAIN.server.ppp[0].ppp 	droppedPkBitError:sum(packetBytes) 	0
attr interpolationmode  none
attr source  dropPkBitError
attr title  "packets dropped/bit error, sum(packetBytes)"
scalar CAIN.server.ppp[0].ppp 	rxPkOk:count 	0
attr interpolationmode  none
attr source  rxPkOk
attr title  "packets received OK, count"
scalar CAIN.server.ppp[0].ppp 	rxPkOk:sum(packetBytes) 	0
attr interpolationmode  none
attr source  rxPkOk
attr title  "packets received OK, sum(packetBytes)"
scalar CAIN.server.ppp[0].ppp 	txPk:count 	0
attr interpolationmode  none
attr source  packetSentToLower
attr title  "packets transmitted, count"
scalar CAIN.server.ppp[0].ppp 	txPk:sum(packetBytes) 	0
attr interpolationmode  none
attr source  packetSentToLower
attr title  "packets transmitted, sum(packetBytes)"
scalar CAIN.server.ppp[0].ppp 	rcvdPkFromHL:count 	0
attr interpolationmode  none
attr source  packetReceivedFromUpper
attr title  "packets received from higher layer, count"
scalar CAIN.server.ppp[0].ppp 	rcvdPkFromHL:sum(packetBytes) 	0
attr interpolationmode  none
attr source  packetReceivedFromUpper
attr title  "packets received from higher layer, sum(packetBytes)"
scalar CAIN.server.ppp[0].ppp 	passedUpPk:count 	0
attr interpolationmode  none
attr source  packetSentToUpper
attr title  "packets passed to higher layer, count"
scalar CAIN.server.ppp[0].ppp 	passedUpPk:sum(packetBytes) 	0
attr interpolationmode  none
attr source  packetSentToUpper
attr title  "packets passed to higher layer, sum(packetBytes)"
scalar CAIN.router.networkLayer.arp 	failedARPResolution:count 	0
attr title  "ARP failed resolutions, count"
scalar CAIN.router.networkLayer.arp 	completedARPResolution:count 	0
attr title  "ARP completed resolutions, count"
scalar CAIN.router.networkLayer.arp 	initiatedARPResolution:count 	0
attr title  "ARP initiated resolutions, count"
scalar CAIN.router.networkLayer.arp 	sentReply:count 	0
attr title  "ARP replies sent, count"
scalar CAIN.router.networkLayer.arp 	sentReq:count 	0
attr title  "ARP request sent, count"
scalar CAIN.router.lo0.lo 	droppedPkBitError:count 	0
attr interpolationmode  none
attr source  dropPkBitError
attr title  "packets dropped/bit error, count"
scalar CAIN.router.lo0.lo 	droppedPkBitError:sum(packetBytes) 	0
attr interpolationmode  none
attr source  dropPkBitError
attr title  "packets dropped/bit error, sum(packetBytes)"
scalar CAIN.router.lo0.lo 	rcvdPkFromHL:count 	0
attr interpolationmode  none
attr source  packetReceivedFromUpper
attr title  "packets received from higher layer, count"
scalar CAIN.router.lo0.lo 	rcvdPkFromHL:sum(packetBytes) 	0
attr interpolationmode  none
attr source  packetReceivedFromUpper
attr title  "packets received from higher layer, sum(packetBytes)"
scalar CAIN.router.lo0.lo 	passedUpPk:count 	0
attr interpolationmode  none
attr source  packetSentToUpper
attr title  "packets passed to higher layer, count"
scalar CAIN.router.lo0.lo 	passedUpPk:sum(packetBytes) 	0
attr interpolationmode  none
attr source  packetSentToUpper
attr title  "packets passed to higher layer, sum(packetBytes)"
statistic CAIN.router.ppp[0].queue 	queueingTime:histogram
field count 0
field mean -nan
field stddev -nan
field sum 0
field sqrsum 0
field min -nan
field max -nan
attr interpolationmode  none
attr title  "queueing time, histogram"
bin	-INF	0
bin	-0.5	0
bin	-0.46666666666667	0
bin	-0.43333333333333	0
bin	-0.4	0
bin	-0.36666666666667	0
bin	-0.33333333333333	0
bin	-0.3	0
bin	-0.26666666666667	0
bin	-0.23333333333333	0
bin	-0.2	0
bin	-0.16666666666667	0
bin	-0.13333333333333	0
bin	-0.1	0
bin	-0.066666666666667	0
bin	-0.033333333333333	0
bin	0	0
bin	0.033333333333333	0
bin	0.066666666666667	0
bin	0.1	0
bin	0.13333333333333	0
bin	0.16666666666667	0
bin	0.2	0
bin	0.23333333333333	0
bin	0.26666666666667	0
bin	0.3	0
bin	0.33333333333333	0
bin	0.36666666666667	0
bin	0.4	0
bin	0.43333333333333	0
bin	0.46666666666667	0
bin	0.5	0
scalar CAIN.router.ppp[0].queue 	dropPk:count 	0
attr interpolationmode  none
attr source  dropPkByQueue
attr title  "dropped packets, count"
scalar CAIN.router.ppp[0].queue 	dropPk:sum(packetBytes) 	0
attr interpolationmode  none
attr source  dropPkByQueue
attr title  "dropped packets, sum(packetBytes)"
scalar CAIN.router.ppp[0].queue 	queueLength:max 	0
attr interpolationmode  sample-hold
attr title  "queue length, max"
scalar CAIN.router.ppp[0].queue 	queueLength:timeavg 	0
attr interpolationmode  sample-hold
attr title  "queue length, timeavg"
scalar CAIN.router.ppp[0].queue 	rcvdPk:count 	0
attr interpolationmode  none
attr title  "received packets, count"
scalar CAIN.router.ppp[0].queue 	rcvdPk:sum(packetBytes) 	0
attr interpolationmode  none
attr title  "received packets, sum(packetBytes)"
scalar CAIN.router.ppp[0].ppp 	txState:timeavg 	0
attr interpolationmode  sample-hold
attr title  "tx state, timeavg"
scalar CAIN.router.ppp[0].ppp 	droppedPkIfaceDown:count 	0
attr interpolationmode  none
attr source  dropPkIfaceDown
attr title  "packets dropped/interface down, count"
scalar CAIN.router.ppp[0].ppp 	droppedPkIfaceDown:sum(packetBytes) 	0
attr interpolationmode  none
attr source  dropPkIfaceDown
attr title  "packets dropped/interface down, sum(packetBytes)"
scalar CAIN.router.ppp[0].ppp 	droppedPkBitError:count 	0
attr interpolationmode  none
attr source  dropPkBitError
attr title  "packets dropped/bit error, count"
scalar CAIN.router.ppp[0].ppp 	droppedPkBitError:sum(packetBytes) 	0
attr interpolationmode  none
attr source  dropPkBitError
attr title  "packets dropped/bit error, sum(packetBytes)"
scalar CAIN.router.ppp[0].ppp 	rxPkOk:count 	0
attr interpolationmode  none
attr source  rxPkOk
attr title  "packets received OK, count"
scalar CAIN.router.ppp[0].ppp 	rxPkOk:sum(packetBytes) 	0
attr interpolationmode  none
attr source  rxPkOk
attr title  "packets received OK, sum(packetBytes)"
scalar CAIN.router.ppp[0].ppp 	txPk:count 	0
attr interpolationmode  none
attr source  packetSentToLower
attr title  "packets transmitted, count"
scalar CAIN.router.ppp[0].ppp 	txPk:sum(packetBytes) 	0
attr interpolationmode  none
attr source  packetSentToLower
attr title  "packets transmitted, sum(packetBytes)"
scalar CAIN.router.ppp[0].ppp 	rcvdPkFromHL:count 	0
attr interpolationmode  none
attr source  packetReceivedFromUpper
attr title  "packets received from higher layer, count"
scalar CAIN.router.ppp[0].ppp 	rcvdPkFromHL:sum(packetBytes) 	0
attr interpolationmode  none
attr source  packetReceivedFromUpper
attr title  "packets received from higher layer, sum(packetBytes)"
scalar CAIN.router.ppp[0].ppp 	passedUpPk:count 	0
attr interpolationmode  none
attr source  packetSentToUpper
attr title  "packets passed to higher layer, count"
scalar CAIN.router.ppp[0].ppp 	passedUpPk:sum(packetBytes) 	0
attr interpolationmode  none
attr source  packetSentToUpper
attr title  "packets passed to higher layer, sum(packetBytes)"
statistic CAIN.router.ppp[1].queue 	queueingTime:histogram
field count 0
field mean -nan
field stddev -nan
field sum 0
field sqrsum 0
field min -nan
field max -nan
attr interpolationmode  none
attr title  "queueing time, histogram"
bin	-INF	0
bin	-0.5	0
bin	-0.46666666666667	0
bin	-0.43333333333333	0
bin	-0.4	0
bin	-0.36666666666667	0
bin	-0.33333333333333	0
bin	-0.3	0
bin	-0.26666666666667	0
bin	-0.23333333333333	0
bin	-0.2	0
bin	-0.16666666666667	0
bin	-0.13333333333333	0
bin	-0.1	0
bin	-0.066666666666667	0
bin	-0.033333333333333	0
bin	0	0
bin	0.033333333333333	0
bin	0.066666666666667	0
bin	0.1	0
bin	0.13333333333333	0
bin	0.16666666666667	0
bin	0.2	0
bin	0.23333333333333	0
bin	0.26666666666667	0
bin	0.3	0
bin	0.33333333333333	0
bin	0.36666666666667	0
bin	0.4	0
bin	0.43333333333333	0
bin	0.46666666666667	0
bin	0.5	0
scalar CAIN.router.ppp[1].queue 	dropPk:count 	0
attr interpolationmode  none
attr source  dropPkByQueue
attr title  "dropped packets, count"
scalar CAIN.router.ppp[1].queue 	dropPk:sum(packetBytes) 	0
attr interpolationmode  none
attr source  dropPkByQueue
attr title  "dropped packets, sum(packetBytes)"
scalar CAIN.router.ppp[1].queue 	queueLength:max 	0
attr interpolationmode  sample-hold
attr title  "queue length, max"
scalar CAIN.router.ppp[1].queue 	queueLength:timeavg 	0
attr interpolationmode  sample-hold
attr title  "queue length, timeavg"
scalar CAIN.router.ppp[1].queue 	rcvdPk:count 	0
attr interpolationmode  none
attr title  "received packets, count"
scalar CAIN.router.ppp[1].queue 	rcvdPk:sum(packetBytes) 	0
attr interpolationmode  none
attr title  "received packets, sum(packetBytes)"
scalar CAIN.router.ppp[1].ppp 	txState:timeavg 	0
attr interpolationmode  sample-hold
attr title  "tx state, timeavg"
scalar CAIN.router.ppp[1].ppp 	droppedPkIfaceDown:count 	0
attr interpolationmode  none
attr source  dropPkIfaceDown
attr title  "packets dropped/interface down, count"
scalar CAIN.router.ppp[1].ppp 	droppedPkIfaceDown:sum(packetBytes) 	0
attr interpolationmode  none
attr source  dropPkIfaceDown
attr title  "packets dropped/interface down, sum(packetBytes)"
scalar CAIN.router.ppp[1].ppp 	droppedPkBitError:count 	0
attr interpolationmode  none
attr source  dropPkBitError
attr title  "packets dropped/bit error, count"
scalar CAIN.router.ppp[1].ppp 	droppedPkBitError:sum(packetBytes) 	0
attr interpolationmode  none
attr source  dropPkBitError
attr title  "packets dropped/bit error, sum(packetBytes)"
scalar CAIN.router.ppp[1].ppp 	rxPkOk:count 	0
attr interpolationmode  none
attr source  rxPkOk
attr title  "packets received OK, count"
scalar CAIN.router.ppp[1].ppp 	rxPkOk:sum(packetBytes) 	0
attr interpolationmode  none
attr source  rxPkOk
attr title  "packets received OK, sum(packetBytes)"
scalar CAIN.router.ppp[1].ppp 	txPk:count 	0
attr interpolationmode  none
attr source  packetSentToLower
attr title  "packets transmitted, count"
scalar CAIN.router.ppp[1].ppp 	txPk:sum(packetBytes) 	0
attr interpolationmode  none
attr source  packetSentToLower
attr title  "packets transmitted, sum(packetBytes)"
scalar CAIN.router.ppp[1].ppp 	rcvdPkFromHL:count 	0
attr interpolationmode  none
attr source  packetReceivedFromUpper
attr title  "packets received from higher layer, count"
scalar CAIN.router.ppp[1].ppp 	rcvdPkFromHL:sum(packetBytes) 	0
attr interpolationmode  none
attr source  packetReceivedFromUpper
attr title  "packets received from higher layer, sum(packetBytes)"
scalar CAIN.router.ppp[1].ppp 	passedUpPk:count 	0
attr interpolationmode  none
attr source  packetSentToUpper
attr title  "packets passed to higher layer, count"
scalar CAIN.router.ppp[1].ppp 	passedUpPk:sum(packetBytes) 	0
attr interpolationmode  none
attr source  packetSentToUpper
attr title  "packets passed to higher layer, sum(packetBytes)"
scalar CAIN.pgw.networkLayer.arp 	failedARPResolution:count 	0
attr title  "ARP failed resolutions, count"
scalar CAIN.pgw.networkLayer.arp 	completedARPResolution:count 	0
attr title  "ARP completed resolutions, count"
scalar CAIN.pgw.networkLayer.arp 	initiatedARPResolution:count 	0
attr title  "ARP initiated resolutions, count"
scalar CAIN.pgw.networkLayer.arp 	sentReply:count 	0
attr title  "ARP replies sent, count"
scalar CAIN.pgw.networkLayer.arp 	sentReq:count 	0
attr title  "ARP request sent, count"
scalar CAIN.pgw.lo0.lo 	droppedPkBitError:count 	0
attr interpolationmode  none
attr source  dropPkBitError
attr title  "packets dropped/bit error, count"
scalar CAIN.pgw.lo0.lo 	droppedPkBitError:sum(packetBytes) 	0
attr interpolationmode  none
attr source  dropPkBitError
attr title  "packets dropped/bit error, sum(packetBytes)"
scalar CAIN.pgw.lo0.lo 	rcvdPkFromHL:count 	0
attr interpolationmode  none
attr source  packetReceivedFromUpper
attr title  "packets received from higher layer, count"
scalar CAIN.pgw.lo0.lo 	rcvdPkFromHL:sum(packetBytes) 	0
attr interpolationmode  none
attr source  packetReceivedFromUpper
attr title  "packets received from higher layer, sum(packetBytes)"
scalar CAIN.pgw.lo0.lo 	passedUpPk:count 	0
attr interpolationmode  none
attr source  packetSentToUpper
attr title  "packets passed to higher layer, count"
scalar CAIN.pgw.lo0.lo 	passedUpPk:sum(packetBytes) 	0
attr interpolationmode  none
attr source  packetSentToUpper
attr title  "packets passed to higher layer, sum(packetBytes)"
statistic CAIN.pgw.ppp[0].queue 	queueingTime:histogram
field count 0
field mean -nan
field stddev -nan
field sum 0
field sqrsum 0
field min -nan
field max -nan
attr interpolationmode  none
attr title  "queueing time, histogram"
bin	-INF	0
bin	-0.5	0
bin	-0.46666666666667	0
bin	-0.43333333333333	0
bin	-0.4	0
bin	-0.36666666666667	0
bin	-0.33333333333333	0
bin	-0.3	0
bin	-0.26666666666667	0
bin	-0.23333333333333	0
bin	-0.2	0
bin	-0.16666666666667	0
bin	-0.13333333333333	0
bin	-0.1	0
bin	-0.066666666666667	0
bin	-0.033333333333333	0
bin	0	0
bin	0.033333333333333	0
bin	0.066666666666667	0
bin	0.1	0
bin	0.13333333333333	0
bin	0.16666666666667	0
bin	0.2	0
bin	0.23333333333333	0
bin	0.26666666666667	0
bin	0.3	0
bin	0.33333333333333	0
bin	0.36666666666667	0
bin	0.4	0
bin	0.43333333333333	0
bin	0.46666666666667	0
bin	0.5	0
scalar CAIN.pgw.ppp[0].queue 	dropPk:count 	0
attr interpolationmode  none
attr source  dropPkByQueue
attr title  "dropped packets, count"
scalar CAIN.pgw.ppp[0].queue 	dropPk:sum(packetBytes) 	0
attr interpolationmode  none
attr source  dropPkByQueue
attr title  "dropped packets, sum(packetBytes)"
scalar CAIN.pgw.ppp[0].queue 	queueLength:max 	0
attr interpolationmode  sample-hold
attr title  "queue length, max"
scalar CAIN.pgw.ppp[0].queue 	queueLength:timeavg 	0
attr interpolationmode  sample-hold
attr title  "queue length, timeavg"
scalar CAIN.pgw.ppp[0].queue 	rcvdPk:count 	0
attr interpolationmode  none
attr title  "received packets, count"
scalar CAIN.pgw.ppp[0].queue 	rcvdPk:sum(packetBytes) 	0
attr interpolationmode  none
attr title  "received packets, sum(packetBytes)"
scalar CAIN.pgw.ppp[0].ppp 	txState:timeavg 	0
attr interpolationmode  sample-hold
attr title  "tx state, timeavg"
scalar CAIN.pgw.ppp[0].ppp 	droppedPkIfaceDown:count 	0
attr interpolationmode  none
attr source  dropPkIfaceDown
attr title  "packets dropped/interface down, count"
scalar CAIN.pgw.ppp[0].ppp 	droppedPkIfaceDown:sum(packetBytes) 	0
attr interpolationmode  none
attr source  dropPkIfaceDown
attr title  "packets dropped/interface down, sum(packetBytes)"
scalar CAIN.pgw.ppp[0].ppp 	droppedPkBitError:count 	0
attr interpolationmode  none
attr source  dropPkBitError
attr title  "packets dropped/bit error, count"
scalar CAIN.pgw.ppp[0].ppp 	droppedPkBitError:sum(packetBytes) 	0
attr interpolationmode  none
attr source  dropPkBitError
attr title  "packets dropped/bit error, sum(packetBytes)"
scalar CAIN.pgw.ppp[0].ppp 	rxPkOk:count 	14
attr interpolationmode  none
attr source  rxPkOk
attr title  "packets received OK, count"
scalar CAIN.pgw.ppp[0].ppp 	rxPkOk:sum(packetBytes) 	1106
attr interpolationmode  none
attr source  rxPkOk
attr title  "packets received OK, sum(packetBytes)"
scalar CAIN.pgw.ppp[0].ppp 	txPk:count 	0
attr interpolationmode  none
attr source  packetSentToLower
attr title  "packets transmitted, count"
scalar CAIN.pgw.ppp[0].ppp 	txPk:sum(packetBytes) 	0
attr interpolationmode  none
attr source  packetSentToLower
attr title  "packets transmitted, sum(packetBytes)"
scalar CAIN.pgw.ppp[0].ppp 	rcvdPkFromHL:count 	0
attr interpolationmode  none
attr source  packetReceivedFromUpper
attr title  "packets received from higher layer, count"
scalar CAIN.pgw.ppp[0].ppp 	rcvdPkFromHL:sum(packetBytes) 	0
attr interpolationmode  none
attr source  packetReceivedFromUpper
attr title  "packets received from higher layer, sum(packetBytes)"
scalar CAIN.pgw.ppp[0].ppp 	passedUpPk:count 	14
attr interpolationmode  none
attr source  packetSentToUpper
attr title  "packets passed to higher layer, count"
scalar CAIN.pgw.ppp[0].ppp 	passedUpPk:sum(packetBytes) 	1008
attr interpolationmode  none
attr source  packetSentToUpper
attr title  "packets passed to higher layer, sum(packetBytes)"
statistic CAIN.pgw.ppp[1].queue 	queueingTime:histogram
field count 14
field mean 0
field stddev 0
field sum 0
field sqrsum 0
field min 0
field max 0
attr interpolationmode  none
attr title  "queueing time, histogram"
bin	-INF	0
bin	-0.5	0
bin	-0.46666666666667	0
bin	-0.43333333333333	0
bin	-0.4	0
bin	-0.36666666666667	0
bin	-0.33333333333333	0
bin	-0.3	0
bin	-0.26666666666667	0
bin	-0.23333333333333	0
bin	-0.2	0
bin	-0.16666666666667	0
bin	-0.13333333333333	0
bin	-0.1	0
bin	-0.066666666666667	0
bin	-0.033333333333333	0
bin	0	14
bin	0.033333333333333	0
bin	0.066666666666667	0
bin	0.1	0
bin	0.13333333333333	0
bin	0.16666666666667	0
bin	0.2	0
bin	0.23333333333333	0
bin	0.26666666666667	0
bin	0.3	0
bin	0.33333333333333	0
bin	0.36666666666667	0
bin	0.4	0
bin	0.43333333333333	0
bin	0.46666666666667	0
bin	0.5	0
scalar CAIN.pgw.ppp[1].queue 	dropPk:count 	0
attr interpolationmode  none
attr source  dropPkByQueue
attr title  "dropped packets, count"
scalar CAIN.pgw.ppp[1].queue 	dropPk:sum(packetBytes) 	0
attr interpolationmode  none
attr source  dropPkByQueue
attr title  "dropped packets, sum(packetBytes)"
scalar CAIN.pgw.ppp[1].queue 	queueLength:max 	0
attr interpolationmode  sample-hold
attr title  "queue length, max"
scalar CAIN.pgw.ppp[1].queue 	queueLength:timeavg 	0
attr interpolationmode  sample-hold
attr title  "queue length, timeavg"
scalar CAIN.pgw.ppp[1].queue 	rcvdPk:count 	14
attr interpolationmode  none
attr title  "received packets, count"
scalar CAIN.pgw.ppp[1].queue 	rcvdPk:sum(packetBytes) 	1008
attr interpolationmode  none
attr title  "received packets, sum(packetBytes)"
scalar CAIN.pgw.ppp[1].ppp 	txState:timeavg 	2.7546699875467e-07
attr interpolationmode  sample-hold
attr title  "tx state, timeavg"
scalar CAIN.pgw.ppp[1].ppp 	droppedPkIfaceDown:count 	0
attr interpolationmode  none
attr source  dropPkIfaceDown
attr title  "packets dropped/interface down, count"
scalar CAIN.pgw.ppp[1].ppp 	droppedPkIfaceDown:sum(packetBytes) 	0
attr interpolationmode  none
attr source  dropPkIfaceDown
attr title  "packets dropped/interface down, sum(packetBytes)"
scalar CAIN.pgw.ppp[1].ppp 	droppedPkBitError:count 	0
attr interpolationmode  none
attr source  dropPkBitError
attr title  "packets dropped/bit error, count"
scalar CAIN.pgw.ppp[1].ppp 	droppedPkBitError:sum(packetBytes) 	0
attr interpolationmode  none
attr source  dropPkBitError
attr title  "packets dropped/bit error, sum(packetBytes)"
scalar CAIN.pgw.ppp[1].ppp 	rxPkOk:count 	0
attr interpolationmode  none
attr source  rxPkOk
attr title  "packets received OK, count"
scalar CAIN.pgw.ppp[1].ppp 	rxPkOk:sum(packetBytes) 	0
attr interpolationmode  none
attr source  rxPkOk
attr title  "packets received OK, sum(packetBytes)"
scalar CAIN.pgw.ppp[1].ppp 	txPk:count 	14
attr interpolationmode  none
attr source  packetSentToLower
attr title  "packets transmitted, count"
scalar CAIN.pgw.ppp[1].ppp 	txPk:sum(packetBytes) 	1106
attr interpolationmode  none
attr source  packetSentToLower
attr title  "packets transmitted, sum(packetBytes)"
scalar CAIN.pgw.ppp[1].ppp 	rcvdPkFromHL:count 	14
attr interpolationmode  none
attr source  packetReceivedFromUpper
attr title  "packets received from higher layer, count"
scalar CAIN.pgw.ppp[1].ppp 	rcvdPkFromHL:sum(packetBytes) 	1008
attr interpolationmode  none
attr source  packetReceivedFromUpper
attr title  "packets received from higher layer, sum(packetBytes)"
scalar CAIN.pgw.ppp[1].ppp 	passedUpPk:count 	0
attr interpolationmode  none
attr source  packetSentToUpper
attr title  "packets passed to higher layer, count"
scalar CAIN.pgw.ppp[1].ppp 	passedUpPk:sum(packetBytes) 	0
attr interpolationmode  none
attr source  packetSentToUpper
attr title  "packets passed to higher layer, sum(packetBytes)"
statistic CAIN.pgw.pppInterface.queue 	queueingTime:histogram
field count 0
field mean -nan
field stddev -nan
field sum 0
field sqrsum 0
field min -nan
field max -nan
attr interpolationmode  none
attr title  "queueing time, histogram"
bin	-INF	0
bin	-0.5	0
bin	-0.46666666666667	0
bin	-0.43333333333333	0
bin	-0.4	0
bin	-0.36666666666667	0
bin	-0.33333333333333	0
bin	-0.3	0
bin	-0.26666666666667	0
bin	-0.23333333333333	0
bin	-0.2	0
bin	-0.16666666666667	0
bin	-0.13333333333333	0
bin	-0.1	0
bin	-0.066666666666667	0
bin	-0.033333333333333	0
bin	0	0
bin	0.033333333333333	0
bin	0.066666666666667	0
bin	0.1	0
bin	0.13333333333333	0
bin	0.16666666666667	0
bin	0.2	0
bin	0.23333333333333	0
bin	0.26666666666667	0
bin	0.3	0
bin	0.33333333333333	0
bin	0.36666666666667	0
bin	0.4	0
bin	0.43333333333333	0
bin	0.46666666666667	0
bin	0.5	0
scalar CAIN.pgw.pppInterface.queue 	dropPk:count 	0
attr interpolationmode  none
attr source  dropPkByQueue
attr title  "dropped packets, count"
scalar CAIN.pgw.pppInterface.queue 	dropPk:sum(packetBytes) 	0
attr interpolationmode  none
attr source  dropPkByQueue
attr title  "dropped packets, sum(packetBytes)"
scalar CAIN.pgw.pppInterface.queue 	queueLength:max 	0
attr interpolationmode  sample-hold
attr title  "queue length, max"
scalar CAIN.pgw.pppInterface.queue 	queueLength:timeavg 	0
attr interpolationmode  sample-hold
attr title  "queue length, timeavg"
scalar CAIN.pgw.pppInterface.queue 	rcvdPk:count 	0
attr interpolationmode  none
attr title  "received packets, count"
scalar CAIN.pgw.pppInterface.queue 	rcvdPk:sum(packetBytes) 	0
attr interpolationmode  none
attr title  "received packets, sum(packetBytes)"
scalar CAIN.pgw.pppInterface.ppp 	txState:timeavg 	0
attr interpolationmode  sample-hold
attr title  "tx state, timeavg"
scalar CAIN.pgw.pppInterface.ppp 	droppedPkIfaceDown:count 	0
attr interpolationmode  none
attr source  dropPkIfaceDown
attr title  "packets dropped/interface down, count"
scalar CAIN.pgw.pppInterface.ppp 	droppedPkIfaceDown:sum(packetBytes) 	0
attr interpolationmode  none
attr source  dropPkIfaceDown
attr title  "packets dropped/interface down, sum(packetBytes)"
scalar CAIN.pgw.pppInterface.ppp 	droppedPkBitError:count 	0
attr interpolationmode  none
attr source  dropPkBitError
attr title  "packets dropped/bit error, count"
scalar CAIN.pgw.pppInterface.ppp 	droppedPkBitError:sum(packetBytes) 	0
attr interpolationmode  none
attr source  dropPkBitError
attr title  "packets dropped/bit error, sum(packetBytes)"
scalar CAIN.pgw.pppInterface.ppp 	rxPkOk:count 	0
attr interpolationmode  none
attr source  rxPkOk
attr title  "packets received OK, count"
scalar CAIN.pgw.pppInterface.ppp 	rxPkOk:sum(packetBytes) 	0
attr interpolationmode  none
attr source  rxPkOk
attr title  "packets received OK, sum(packetBytes)"
scalar CAIN.pgw.pppInterface.ppp 	txPk:count 	0
attr interpolationmode  none
attr source  packetSentToLower
attr title  "packets transmitted, count"
scalar CAIN.pgw.pppInterface.ppp 	txPk:sum(packetBytes) 	0
attr interpolationmode  none
attr source  packetSentToLower
attr title  "packets transmitted, sum(packetBytes)"
scalar CAIN.pgw.pppInterface.ppp 	rcvdPkFromHL:count 	0
attr interpolationmode  none
attr source  packetReceivedFromUpper
attr title  "packets received from higher layer, count"
scalar CAIN.pgw.pppInterface.ppp 	rcvdPkFromHL:sum(packetBytes) 	0
attr interpolationmode  none
attr source  packetReceivedFromUpper
attr title  "packets received from higher layer, sum(packetBytes)"
scalar CAIN.pgw.pppInterface.ppp 	passedUpPk:count 	0
attr interpolationmode  none
attr source  packetSentToUpper
attr title  "packets passed to higher layer, count"
scalar CAIN.pgw.pppInterface.ppp 	passedUpPk:sum(packetBytes) 	0
attr interpolationmode  none
attr source  packetSentToUpper
attr title  "packets passed to higher layer, sum(packetBytes)"
scalar CAIN.pgw.udp 	droppedPkBadChecksum:count 	0
attr interpolationmode  none
attr title  "packets dropped (checksum error), count"
scalar CAIN.pgw.udp 	droppedPkWrongPort:count 	0
attr interpolationmode  none
attr title  "packets dropped (wrong port), count"
scalar CAIN.pgw.udp 	passedUpPk:count 	14
attr interpolationmode  none
attr title  "packets passed up, count"
scalar CAIN.pgw.udp 	rcvdPk:count 	14
attr interpolationmode  none
attr source  rcvdPk
attr title  "packets received, count"
scalar CAIN.pgw.udp 	rcvdPk:sum(packetBytes) 	728
attr interpolationmode  none
attr source  rcvdPk
attr title  "packets received, sum(packetBytes)"
scalar CAIN.pgw.udp 	sentPk:count 	14
attr interpolationmode  none
attr source  sentPk
attr title  "packets sent, count"
scalar CAIN.pgw.udp 	sentPk:sum(packetBytes) 	728
attr interpolationmode  none
attr source  sentPk
attr title  "packets sent, sum(packetBytes)"
scalar CAIN.eNodeB.nic.pdcpRrc 	sentPacketToLowerLayer:count 	0
attr interpolationmode  none
attr source  sentPacketToLowerLayer
scalar CAIN.eNodeB.nic.pdcpRrc 	sentPacketToLowerLayer:sum(packetBytes) 	0
attr interpolationmode  none
attr source  sentPacketToLowerLayer
scalar CAIN.eNodeB.nic.pdcpRrc 	sentPacketToUpperLayer:count 	18
attr interpolationmode  none
attr source  sentPacketToUpperLayer
scalar CAIN.eNodeB.nic.pdcpRrc 	sentPacketToUpperLayer:sum(packetBytes) 	792
attr interpolationmode  none
attr source  sentPacketToUpperLayer
scalar CAIN.eNodeB.nic.pdcpRrc 	receivedPacketFromLowerLayer:count 	18
attr interpolationmode  none
attr source  receivedPacketFromLowerLayer
scalar CAIN.eNodeB.nic.pdcpRrc 	receivedPacketFromLowerLayer:sum(packetBytes) 	810
attr interpolationmode  none
attr source  receivedPacketFromLowerLayer
scalar CAIN.eNodeB.nic.pdcpRrc 	receivedPacketFromUpperLayer:count 	0
attr interpolationmode  none
attr source  receivedPacketFromUpperLayer
scalar CAIN.eNodeB.nic.pdcpRrc 	receivedPacketFromUpperLayer:sum(packetBytes) 	0
attr interpolationmode  none
attr source  receivedPacketFromUpperLayer
scalar CAIN.eNodeB.nic.rlc.um 	rlcCellPacketLossUl:lteAvg 	0
attr source  rlcCellPacketLossUl
attr title  "rlc Cell Packet Loss, lteAvg"
attr unit  ""
scalar CAIN.eNodeB.nic.rlc.um 	rlcCellThroughputUl:lteRate 	254.31711145997
attr source  rlcCellThroughputUl
attr title  "Cell Throughput at the rlc layer UL, lteRate"
attr unit  Bps
scalar CAIN.eNodeB.nic.mac 	cqiDlMuMimo4:lteAvg 	2
attr source  cqiDlMuMimo4
attr title  "Average cqi MuMimo band 4, lteAvg"
attr unit  cqi
scalar CAIN.eNodeB.nic.mac 	cqiDlMuMimo4:lteAvg 	4
attr source  cqiDlMuMimo4
attr title  "Average cqi MuMimo band 4, lteAvg"
attr unit  cqi
scalar CAIN.eNodeB.nic.mac 	cqiDlMuMimo4:lteAvg 	2
attr source  cqiDlMuMimo4
attr title  "Average cqi MuMimo band 4, lteAvg"
attr unit  cqi
scalar CAIN.eNodeB.nic.mac 	cqiDlMuMimo4:lteAvg 	2.1212686567164
attr source  cqiDlMuMimo4
attr title  "Average cqi MuMimo band 4, lteAvg"
attr unit  cqi
scalar CAIN.eNodeB.nic.mac 	cqiDlMuMimo4:lteAvg 	2
attr source  cqiDlMuMimo4
attr title  "Average cqi MuMimo band 4, lteAvg"
attr unit  cqi
scalar CAIN.eNodeB.nic.mac 	cqiDlMuMimo4:lteAvg 	6.8041044776119
attr source  cqiDlMuMimo4
attr title  "Average cqi MuMimo band 4, lteAvg"
attr unit  cqi
scalar CAIN.eNodeB.nic.mac 	cqiDlMuMimo4:lteAvg 	2
attr source  cqiDlMuMimo4
attr title  "Average cqi MuMimo band 4, lteAvg"
attr unit  cqi
scalar CAIN.eNodeB.nic.mac 	cqiDlMuMimo4:lteAvg 	2.3488805970149
attr source  cqiDlMuMimo4
attr title  "Average cqi MuMimo band 4, lteAvg"
attr unit  cqi
scalar CAIN.eNodeB.nic.mac 	cqiDlMuMimo4:lteAvg 	2
attr source  cqiDlMuMimo4
attr title  "Average cqi MuMimo band 4, lteAvg"
attr unit  cqi
scalar CAIN.eNodeB.nic.mac 	cqiDlMuMimo4:lteAvg 	9.3227611940299
attr source  cqiDlMuMimo4
attr title  "Average cqi MuMimo band 4, lteAvg"
attr unit  cqi
scalar CAIN.eNodeB.nic.mac 	cqiDlMuMimo4:lteAvg 	6
attr source  cqiDlMuMimo4
attr title  "Average cqi MuMimo band 4, lteAvg"
attr unit  cqi
scalar CAIN.eNodeB.nic.mac 	cqiDlMuMimo4:lteAvg 	13.89552238806
attr source  cqiDlMuMimo4
attr title  "Average cqi MuMimo band 4, lteAvg"
attr unit  cqi
scalar CAIN.eNodeB.nic.mac 	cqiDlMuMimo4:lteAvg 	2
attr source  cqiDlMuMimo4
attr title  "Average cqi MuMimo band 4, lteAvg"
attr unit  cqi
scalar CAIN.eNodeB.nic.mac 	cqiDlMuMimo4:lteAvg 	7
attr source  cqiDlMuMimo4
attr title  "Average cqi MuMimo band 4, lteAvg"
attr unit  cqi
scalar CAIN.eNodeB.nic.mac 	cqiDlMuMimo4:lteAvg 	2
attr source  cqiDlMuMimo4
attr title  "Average cqi MuMimo band 4, lteAvg"
attr unit  cqi
scalar CAIN.eNodeB.nic.mac 	cqiDlMuMimo4:lteAvg 	5.1529850746269
attr source  cqiDlMuMimo4
attr title  "Average cqi MuMimo band 4, lteAvg"
attr unit  cqi
scalar CAIN.eNodeB.nic.mac 	cqiDlMuMimo4:lteAvg 	4.1417910447761
attr source  cqiDlMuMimo4
attr title  "Average cqi MuMimo band 4, lteAvg"
attr unit  cqi
scalar CAIN.eNodeB.nic.mac 	cqiDlMuMimo4:lteAvg 	4
attr source  cqiDlMuMimo4
attr title  "Average cqi MuMimo band 4, lteAvg"
attr unit  cqi
scalar CAIN.eNodeB.nic.mac 	cqiDlMuMimo4:lteAvg 	2
attr source  cqiDlMuMimo4
attr title  "Average cqi MuMimo band 4, lteAvg"
attr unit  cqi
scalar CAIN.eNodeB.nic.mac 	cqiDlMuMimo4:lteAvg 	11
attr source  cqiDlMuMimo4
attr title  "Average cqi MuMimo band 4, lteAvg"
attr unit  cqi
scalar CAIN.eNodeB.nic.mac 	cqiDlMuMimo4:lteAvg 	2
attr source  cqiDlMuMimo4
attr title  "Average cqi MuMimo band 4, lteAvg"
attr unit  cqi
scalar CAIN.eNodeB.nic.mac 	cqiDlMuMimo4:lteAvg 	2
attr source  cqiDlMuMimo4
attr title  "Average cqi MuMimo band 4, lteAvg"
attr unit  cqi
scalar CAIN.eNodeB.nic.mac 	cqiDlMuMimo4:lteAvg 	2
attr source  cqiDlMuMimo4
attr title  "Average cqi MuMimo band 4, lteAvg"
attr unit  cqi
scalar CAIN.eNodeB.nic.mac 	cqiDlMuMimo4:lteAvg 	2.0317757009346
attr source  cqiDlMuMimo4
attr title  "Average cqi MuMimo band 4, lteAvg"
attr unit  cqi
scalar CAIN.eNodeB.nic.mac 	cqiDlMuMimo4:lteAvg 	14.977570093458
attr source  cqiDlMuMimo4
attr title  "Average cqi MuMimo band 4, lteAvg"
attr unit  cqi
scalar CAIN.eNodeB.nic.mac 	cqiDlMuMimo3:lteAvg 	2
attr source  cqiDlMuMimo3
attr title  "Average cqi MuMimo band 3, lteAvg"
attr unit  cqi
scalar CAIN.eNodeB.nic.mac 	cqiDlMuMimo3:lteAvg 	3
attr source  cqiDlMuMimo3
attr title  "Average cqi MuMimo band 3, lteAvg"
attr unit  cqi
scalar CAIN.eNodeB.nic.mac 	cqiDlMuMimo3:lteAvg 	2
attr source  cqiDlMuMimo3
attr title  "Average cqi MuMimo band 3, lteAvg"
attr unit  cqi
scalar CAIN.eNodeB.nic.mac 	cqiDlMuMimo3:lteAvg 	7.7574626865672
attr source  cqiDlMuMimo3
attr title  "Average cqi MuMimo band 3, lteAvg"
attr unit  cqi
scalar CAIN.eNodeB.nic.mac 	cqiDlMuMimo3:lteAvg 	2
attr source  cqiDlMuMimo3
attr title  "Average cqi MuMimo band 3, lteAvg"
attr unit  cqi
scalar CAIN.eNodeB.nic.mac 	cqiDlMuMimo3:lteAvg 	2.1100746268657
attr source  cqiDlMuMimo3
attr title  "Average cqi MuMimo band 3, lteAvg"
attr unit  cqi
scalar CAIN.eNodeB.nic.mac 	cqiDlMuMimo3:lteAvg 	1.9962686567164
attr source  cqiDlMuMimo3
attr title  "Average cqi MuMimo band 3, lteAvg"
attr unit  cqi
scalar CAIN.eNodeB.nic.mac 	cqiDlMuMimo3:lteAvg 	2.3712686567164
attr source  cqiDlMuMimo3
attr title  "Average cqi MuMimo band 3, lteAvg"
attr unit  cqi
scalar CAIN.eNodeB.nic.mac 	cqiDlMuMimo3:lteAvg 	4.8432835820896
attr source  cqiDlMuMimo3
attr title  "Average cqi MuMimo band 3, lteAvg"
attr unit  cqi
scalar CAIN.eNodeB.nic.mac 	cqiDlMuMimo3:lteAvg 	14.936567164179
attr source  cqiDlMuMimo3
attr title  "Average cqi MuMimo band 3, lteAvg"
attr unit  cqi
scalar CAIN.eNodeB.nic.mac 	cqiDlMuMimo3:lteAvg 	7
attr source  cqiDlMuMimo3
attr title  "Average cqi MuMimo band 3, lteAvg"
attr unit  cqi
scalar CAIN.eNodeB.nic.mac 	cqiDlMuMimo3:lteAvg 	7.3003731343284
attr source  cqiDlMuMimo3
attr title  "Average cqi MuMimo band 3, lteAvg"
attr unit  cqi
scalar CAIN.eNodeB.nic.mac 	cqiDlMuMimo3:lteAvg 	2
attr source  cqiDlMuMimo3
attr title  "Average cqi MuMimo band 3, lteAvg"
attr unit  cqi
scalar CAIN.eNodeB.nic.mac 	cqiDlMuMimo3:lteAvg 	7
attr source  cqiDlMuMimo3
attr title  "Average cqi MuMimo band 3, lteAvg"
attr unit  cqi
scalar CAIN.eNodeB.nic.mac 	cqiDlMuMimo3:lteAvg 	2
attr source  cqiDlMuMimo3
attr title  "Average cqi MuMimo band 3, lteAvg"
attr unit  cqi
scalar CAIN.eNodeB.nic.mac 	cqiDlMuMimo3:lteAvg 	5.2313432835821
attr source  cqiDlMuMimo3
attr title  "Average cqi MuMimo band 3, lteAvg"
attr unit  cqi
scalar CAIN.eNodeB.nic.mac 	cqiDlMuMimo3:lteAvg 	8.919776119403
attr source  cqiDlMuMimo3
attr title  "Average cqi MuMimo band 3, lteAvg"
attr unit  cqi
scalar CAIN.eNodeB.nic.mac 	cqiDlMuMimo3:lteAvg 	2
attr source  cqiDlMuMimo3
attr title  "Average cqi MuMimo band 3, lteAvg"
attr unit  cqi
scalar CAIN.eNodeB.nic.mac 	cqiDlMuMimo3:lteAvg 	2
attr source  cqiDlMuMimo3
attr title  "Average cqi MuMimo band 3, lteAvg"
attr unit  cqi
scalar CAIN.eNodeB.nic.mac 	cqiDlMuMimo3:lteAvg 	8
attr source  cqiDlMuMimo3
attr title  "Average cqi MuMimo band 3, lteAvg"
attr unit  cqi
scalar CAIN.eNodeB.nic.mac 	cqiDlMuMimo3:lteAvg 	2
attr source  cqiDlMuMimo3
attr title  "Average cqi MuMimo band 3, lteAvg"
attr unit  cqi
scalar CAIN.eNodeB.nic.mac 	cqiDlMuMimo3:lteAvg 	2
attr source  cqiDlMuMimo3
attr title  "Average cqi MuMimo band 3, lteAvg"
attr unit  cqi
scalar CAIN.eNodeB.nic.mac 	cqiDlMuMimo3:lteAvg 	2
attr source  cqiDlMuMimo3
attr title  "Average cqi MuMimo band 3, lteAvg"
attr unit  cqi
scalar CAIN.eNodeB.nic.mac 	cqiDlMuMimo3:lteAvg 	2.0504672897196
attr source  cqiDlMuMimo3
attr title  "Average cqi MuMimo band 3, lteAvg"
attr unit  cqi
scalar CAIN.eNodeB.nic.mac 	cqiDlMuMimo3:lteAvg 	14.016822429907
attr source  cqiDlMuMimo3
attr title  "Average cqi MuMimo band 3, lteAvg"
attr unit  cqi
scalar CAIN.eNodeB.nic.mac 	cqiDlMuMimo2:lteAvg 	2
attr source  cqiDlMuMimo2
attr title  "Average cqi MuMimo band 2, lteAvg"
attr unit  cqi
scalar CAIN.eNodeB.nic.mac 	cqiDlMuMimo2:lteAvg 	2
attr source  cqiDlMuMimo2
attr title  "Average cqi MuMimo band 2, lteAvg"
attr unit  cqi
scalar CAIN.eNodeB.nic.mac 	cqiDlMuMimo2:lteAvg 	2
attr source  cqiDlMuMimo2
attr title  "Average cqi MuMimo band 2, lteAvg"
attr unit  cqi
scalar CAIN.eNodeB.nic.mac 	cqiDlMuMimo2:lteAvg 	7.740671641791
attr source  cqiDlMuMimo2
attr title  "Average cqi MuMimo band 2, lteAvg"
attr unit  cqi
scalar CAIN.eNodeB.nic.mac 	cqiDlMuMimo2:lteAvg 	2
attr source  cqiDlMuMimo2
attr title  "Average cqi MuMimo band 2, lteAvg"
attr unit  cqi
scalar CAIN.eNodeB.nic.mac 	cqiDlMuMimo2:lteAvg 	6.8544776119403
attr source  cqiDlMuMimo2
attr title  "Average cqi MuMimo band 2, lteAvg"
attr unit  cqi
scalar CAIN.eNodeB.nic.mac 	cqiDlMuMimo2:lteAvg 	1.9962686567164
attr source  cqiDlMuMimo2
attr title  "Average cqi MuMimo band 2, lteAvg"
attr unit  cqi
scalar CAIN.eNodeB.nic.mac 	cqiDlMuMimo2:lteAvg 	8.1194029850746
attr source  cqiDlMuMimo2
attr title  "Average cqi MuMimo band 2, lteAvg"
attr unit  cqi
scalar CAIN.eNodeB.nic.mac 	cqiDlMuMimo2:lteAvg 	2.0373134328358
attr source  cqiDlMuMimo2
attr title  "Average cqi MuMimo band 2, lteAvg"
attr unit  cqi
scalar CAIN.eNodeB.nic.mac 	cqiDlMuMimo2:lteAvg 	14.945895522388
attr source  cqiDlMuMimo2
attr title  "Average cqi MuMimo band 2, lteAvg"
attr unit  cqi
scalar CAIN.eNodeB.nic.mac 	cqiDlMuMimo2:lteAvg 	6
attr source  cqiDlMuMimo2
attr title  "Average cqi MuMimo band 2, lteAvg"
attr unit  cqi
scalar CAIN.eNodeB.nic.mac 	cqiDlMuMimo2:lteAvg 	13.82276119403
attr source  cqiDlMuMimo2
attr title  "Average cqi MuMimo band 2, lteAvg"
attr unit  cqi
scalar CAIN.eNodeB.nic.mac 	cqiDlMuMimo2:lteAvg 	2
attr source  cqiDlMuMimo2
attr title  "Average cqi MuMimo band 2, lteAvg"
attr unit  cqi
scalar CAIN.eNodeB.nic.mac 	cqiDlMuMimo2:lteAvg 	3
attr source  cqiDlMuMimo2
attr title  "Average cqi MuMimo band 2, lteAvg"
attr unit  cqi
scalar CAIN.eNodeB.nic.mac 	cqiDlMuMimo2:lteAvg 	2
attr source  cqiDlMuMimo2
attr title  "Average cqi MuMimo band 2, lteAvg"
attr unit  cqi
scalar CAIN.eNodeB.nic.mac 	cqiDlMuMimo2:lteAvg 	12.652985074627
attr source  cqiDlMuMimo2
attr title  "Average cqi MuMimo band 2, lteAvg"
attr unit  cqi
scalar CAIN.eNodeB.nic.mac 	cqiDlMuMimo2:lteAvg 	6.0186567164179
attr source  cqiDlMuMimo2
attr title  "Average cqi MuMimo band 2, lteAvg"
attr unit  cqi
scalar CAIN.eNodeB.nic.mac 	cqiDlMuMimo2:lteAvg 	2
attr source  cqiDlMuMimo2
attr title  "Average cqi MuMimo band 2, lteAvg"
attr unit  cqi
scalar CAIN.eNodeB.nic.mac 	cqiDlMuMimo2:lteAvg 	2
attr source  cqiDlMuMimo2
attr title  "Average cqi MuMimo band 2, lteAvg"
attr unit  cqi
scalar CAIN.eNodeB.nic.mac 	cqiDlMuMimo2:lteAvg 	14
attr source  cqiDlMuMimo2
attr title  "Average cqi MuMimo band 2, lteAvg"
attr unit  cqi
scalar CAIN.eNodeB.nic.mac 	cqiDlMuMimo2:lteAvg 	2
attr source  cqiDlMuMimo2
attr title  "Average cqi MuMimo band 2, lteAvg"
attr unit  cqi
scalar CAIN.eNodeB.nic.mac 	cqiDlMuMimo2:lteAvg 	2
attr source  cqiDlMuMimo2
attr title  "Average cqi MuMimo band 2, lteAvg"
attr unit  cqi
scalar CAIN.eNodeB.nic.mac 	cqiDlMuMimo2:lteAvg 	2
attr source  cqiDlMuMimo2
attr title  "Average cqi MuMimo band 2, lteAvg"
attr unit  cqi
scalar CAIN.eNodeB.nic.mac 	cqiDlMuMimo2:lteAvg 	2.0336448598131
attr source  cqiDlMuMimo2
attr title  "Average cqi MuMimo band 2, lteAvg"
attr unit  cqi
scalar CAIN.eNodeB.nic.mac 	cqiDlMuMimo2:lteAvg 	14.998130841121
attr source  cqiDlMuMimo2
attr title  "Average cqi MuMimo band 2, lteAvg"
attr unit  cqi
scalar CAIN.eNodeB.nic.mac 	cqiDlMuMimo1:lteAvg 	2
attr source  cqiDlMuMimo1
attr title  "Average cqi MuMimo band 1, lteAvg"
attr unit  cqi
scalar CAIN.eNodeB.nic.mac 	cqiDlMuMimo1:lteAvg 	3
attr source  cqiDlMuMimo1
attr title  "Average cqi MuMimo band 1, lteAvg"
attr unit  cqi
scalar CAIN.eNodeB.nic.mac 	cqiDlMuMimo1:lteAvg 	4
attr source  cqiDlMuMimo1
attr title  "Average cqi MuMimo band 1, lteAvg"
attr unit  cqi
scalar CAIN.eNodeB.nic.mac 	cqiDlMuMimo1:lteAvg 	2.1175373134328
attr source  cqiDlMuMimo1
attr title  "Average cqi MuMimo band 1, lteAvg"
attr unit  cqi
scalar CAIN.eNodeB.nic.mac 	cqiDlMuMimo1:lteAvg 	2
attr source  cqiDlMuMimo1
attr title  "Average cqi MuMimo band 1, lteAvg"
attr unit  cqi
scalar CAIN.eNodeB.nic.mac 	cqiDlMuMimo1:lteAvg 	2.1940298507463
attr source  cqiDlMuMimo1
attr title  "Average cqi MuMimo band 1, lteAvg"
attr unit  cqi
scalar CAIN.eNodeB.nic.mac 	cqiDlMuMimo1:lteAvg 	1.9962686567164
attr source  cqiDlMuMimo1
attr title  "Average cqi MuMimo band 1, lteAvg"
attr unit  cqi
scalar CAIN.eNodeB.nic.mac 	cqiDlMuMimo1:lteAvg 	8.0970149253731
attr source  cqiDlMuMimo1
attr title  "Average cqi MuMimo band 1, lteAvg"
attr unit  cqi
scalar CAIN.eNodeB.nic.mac 	cqiDlMuMimo1:lteAvg 	2.0130597014925
attr source  cqiDlMuMimo1
attr title  "Average cqi MuMimo band 1, lteAvg"
attr unit  cqi
scalar CAIN.eNodeB.nic.mac 	cqiDlMuMimo1:lteAvg 	14.934701492537
attr source  cqiDlMuMimo1
attr title  "Average cqi MuMimo band 1, lteAvg"
attr unit  cqi
scalar CAIN.eNodeB.nic.mac 	cqiDlMuMimo1:lteAvg 	8
attr source  cqiDlMuMimo1
attr title  "Average cqi MuMimo band 1, lteAvg"
attr unit  cqi
scalar CAIN.eNodeB.nic.mac 	cqiDlMuMimo1:lteAvg 	12.96828358209
attr source  cqiDlMuMimo1
attr title  "Average cqi MuMimo band 1, lteAvg"
attr unit  cqi
scalar CAIN.eNodeB.nic.mac 	cqiDlMuMimo1:lteAvg 	2
attr source  cqiDlMuMimo1
attr title  "Average cqi MuMimo band 1, lteAvg"
attr unit  cqi
scalar CAIN.eNodeB.nic.mac 	cqiDlMuMimo1:lteAvg 	7
attr source  cqiDlMuMimo1
attr title  "Average cqi MuMimo band 1, lteAvg"
attr unit  cqi
scalar CAIN.eNodeB.nic.mac 	cqiDlMuMimo1:lteAvg 	2
attr source  cqiDlMuMimo1
attr title  "Average cqi MuMimo band 1, lteAvg"
attr unit  cqi
scalar CAIN.eNodeB.nic.mac 	cqiDlMuMimo1:lteAvg 	9.9216417910448
attr source  cqiDlMuMimo1
attr title  "Average cqi MuMimo band 1, lteAvg"
attr unit  cqi
scalar CAIN.eNodeB.nic.mac 	cqiDlMuMimo1:lteAvg 	7.0149253731343
attr source  cqiDlMuMimo1
attr title  "Average cqi MuMimo band 1, lteAvg"
attr unit  cqi
scalar CAIN.eNodeB.nic.mac 	cqiDlMuMimo1:lteAvg 	4
attr source  cqiDlMuMimo1
attr title  "Average cqi MuMimo band 1, lteAvg"
attr unit  cqi
scalar CAIN.eNodeB.nic.mac 	cqiDlMuMimo1:lteAvg 	2
attr source  cqiDlMuMimo1
attr title  "Average cqi MuMimo band 1, lteAvg"
attr unit  cqi
scalar CAIN.eNodeB.nic.mac 	cqiDlMuMimo1:lteAvg 	14
attr source  cqiDlMuMimo1
attr title  "Average cqi MuMimo band 1, lteAvg"
attr unit  cqi
scalar CAIN.eNodeB.nic.mac 	cqiDlMuMimo1:lteAvg 	2
attr source  cqiDlMuMimo1
attr title  "Average cqi MuMimo band 1, lteAvg"
attr unit  cqi
scalar CAIN.eNodeB.nic.mac 	cqiDlMuMimo1:lteAvg 	2
attr source  cqiDlMuMimo1
attr title  "Average cqi MuMimo band 1, lteAvg"
attr unit  cqi
scalar CAIN.eNodeB.nic.mac 	cqiDlMuMimo1:lteAvg 	2
attr source  cqiDlMuMimo1
attr title  "Average cqi MuMimo band 1, lteAvg"
attr unit  cqi
scalar CAIN.eNodeB.nic.mac 	cqiDlMuMimo1:lteAvg 	2.0130841121495
attr source  cqiDlMuMimo1
attr title  "Average cqi MuMimo band 1, lteAvg"
attr unit  cqi
scalar CAIN.eNodeB.nic.mac 	cqiDlMuMimo1:lteAvg 	9.3271028037383
attr source  cqiDlMuMimo1
attr title  "Average cqi MuMimo band 1, lteAvg"
attr unit  cqi
scalar CAIN.eNodeB.nic.mac 	cqiDlMuMimo0:lteAvg 	2
attr source  cqiDlMuMimo0
attr title  "Average cqi MuMimo band 0, lteAvg"
attr unit  cqi
scalar CAIN.eNodeB.nic.mac 	cqiDlMuMimo0:lteAvg 	2
attr source  cqiDlMuMimo0
attr title  "Average cqi MuMimo band 0, lteAvg"
attr unit  cqi
scalar CAIN.eNodeB.nic.mac 	cqiDlMuMimo0:lteAvg 	2
attr source  cqiDlMuMimo0
attr title  "Average cqi MuMimo band 0, lteAvg"
attr unit  cqi
scalar CAIN.eNodeB.nic.mac 	cqiDlMuMimo0:lteAvg 	6.8675373134328
attr source  cqiDlMuMimo0
attr title  "Average cqi MuMimo band 0, lteAvg"
attr unit  cqi
scalar CAIN.eNodeB.nic.mac 	cqiDlMuMimo0:lteAvg 	2
attr source  cqiDlMuMimo0
attr title  "Average cqi MuMimo band 0, lteAvg"
attr unit  cqi
scalar CAIN.eNodeB.nic.mac 	cqiDlMuMimo0:lteAvg 	2.134328358209
attr source  cqiDlMuMimo0
attr title  "Average cqi MuMimo band 0, lteAvg"
attr unit  cqi
scalar CAIN.eNodeB.nic.mac 	cqiDlMuMimo0:lteAvg 	1.9888059701493
attr source  cqiDlMuMimo0
attr title  "Average cqi MuMimo band 0, lteAvg"
attr unit  cqi
scalar CAIN.eNodeB.nic.mac 	cqiDlMuMimo0:lteAvg 	4.2220149253731
attr source  cqiDlMuMimo0
attr title  "Average cqi MuMimo band 0, lteAvg"
attr unit  cqi
scalar CAIN.eNodeB.nic.mac 	cqiDlMuMimo0:lteAvg 	3.9048507462687
attr source  cqiDlMuMimo0
attr title  "Average cqi MuMimo band 0, lteAvg"
attr unit  cqi
scalar CAIN.eNodeB.nic.mac 	cqiDlMuMimo0:lteAvg 	11.160447761194
attr source  cqiDlMuMimo0
attr title  "Average cqi MuMimo band 0, lteAvg"
attr unit  cqi
scalar CAIN.eNodeB.nic.mac 	cqiDlMuMimo0:lteAvg 	3
attr source  cqiDlMuMimo0
attr title  "Average cqi MuMimo band 0, lteAvg"
attr unit  cqi
scalar CAIN.eNodeB.nic.mac 	cqiDlMuMimo0:lteAvg 	14.768656716418
attr source  cqiDlMuMimo0
attr title  "Average cqi MuMimo band 0, lteAvg"
attr unit  cqi
scalar CAIN.eNodeB.nic.mac 	cqiDlMuMimo0:lteAvg 	2
attr source  cqiDlMuMimo0
attr title  "Average cqi MuMimo band 0, lteAvg"
attr unit  cqi
scalar CAIN.eNodeB.nic.mac 	cqiDlMuMimo0:lteAvg 	10
attr source  cqiDlMuMimo0
attr title  "Average cqi MuMimo band 0, lteAvg"
attr unit  cqi
scalar CAIN.eNodeB.nic.mac 	cqiDlMuMimo0:lteAvg 	2
attr source  cqiDlMuMimo0
attr title  "Average cqi MuMimo band 0, lteAvg"
attr unit  cqi
scalar CAIN.eNodeB.nic.mac 	cqiDlMuMimo0:lteAvg 	6.134328358209
attr source  cqiDlMuMimo0
attr title  "Average cqi MuMimo band 0, lteAvg"
attr unit  cqi
scalar CAIN.eNodeB.nic.mac 	cqiDlMuMimo0:lteAvg 	7.9011194029851
attr source  cqiDlMuMimo0
attr title  "Average cqi MuMimo band 0, lteAvg"
attr unit  cqi
scalar CAIN.eNodeB.nic.mac 	cqiDlMuMimo0:lteAvg 	6
attr source  cqiDlMuMimo0
attr title  "Average cqi MuMimo band 0, lteAvg"
attr unit  cqi
scalar CAIN.eNodeB.nic.mac 	cqiDlMuMimo0:lteAvg 	4
attr source  cqiDlMuMimo0
attr title  "Average cqi MuMimo band 0, lteAvg"
attr unit  cqi
scalar CAIN.eNodeB.nic.mac 	cqiDlMuMimo0:lteAvg 	14
attr source  cqiDlMuMimo0
attr title  "Average cqi MuMimo band 0, lteAvg"
attr unit  cqi
scalar CAIN.eNodeB.nic.mac 	cqiDlMuMimo0:lteAvg 	2
attr source  cqiDlMuMimo0
attr title  "Average cqi MuMimo band 0, lteAvg"
attr unit  cqi
scalar CAIN.eNodeB.nic.mac 	cqiDlMuMimo0:lteAvg 	2
attr source  cqiDlMuMimo0
attr title  "Average cqi MuMimo band 0, lteAvg"
attr unit  cqi
scalar CAIN.eNodeB.nic.mac 	cqiDlMuMimo0:lteAvg 	1.996261682243
attr source  cqiDlMuMimo0
attr title  "Average cqi MuMimo band 0, lteAvg"
attr unit  cqi
scalar CAIN.eNodeB.nic.mac 	cqiDlMuMimo0:lteAvg 	3.0261682242991
attr source  cqiDlMuMimo0
attr title  "Average cqi MuMimo band 0, lteAvg"
attr unit  cqi
scalar CAIN.eNodeB.nic.mac 	cqiDlMuMimo0:lteAvg 	14.968224299065
attr source  cqiDlMuMimo0
attr title  "Average cqi MuMimo band 0, lteAvg"
attr unit  cqi
scalar CAIN.eNodeB.nic.mac 	cqiDlTxDiv4:lteAvg 	4
attr source  cqiDlTxDiv4
attr title  "Average cqi TxDiv band 4, lteAvg"
attr unit  cqi
scalar CAIN.eNodeB.nic.mac 	cqiDlTxDiv4:lteAvg 	14
attr source  cqiDlTxDiv4
attr title  "Average cqi TxDiv band 4, lteAvg"
attr unit  cqi
scalar CAIN.eNodeB.nic.mac 	cqiDlTxDiv4:lteAvg 	8
attr source  cqiDlTxDiv4
attr title  "Average cqi TxDiv band 4, lteAvg"
attr unit  cqi
scalar CAIN.eNodeB.nic.mac 	cqiDlTxDiv4:lteAvg 	10.097014925373
attr source  cqiDlTxDiv4
attr title  "Average cqi TxDiv band 4, lteAvg"
attr unit  cqi
scalar CAIN.eNodeB.nic.mac 	cqiDlTxDiv4:lteAvg 	2
attr source  cqiDlTxDiv4
attr title  "Average cqi TxDiv band 4, lteAvg"
attr unit  cqi
scalar CAIN.eNodeB.nic.mac 	cqiDlTxDiv4:lteAvg 	14.833955223881
attr source  cqiDlTxDiv4
attr title  "Average cqi TxDiv band 4, lteAvg"
attr unit  cqi
scalar CAIN.eNodeB.nic.mac 	cqiDlTxDiv4:lteAvg 	3.9253731343284
attr source  cqiDlTxDiv4
attr title  "Average cqi TxDiv band 4, lteAvg"
attr unit  cqi
scalar CAIN.eNodeB.nic.mac 	cqiDlTxDiv4:lteAvg 	9.3115671641791
attr source  cqiDlTxDiv4
attr title  "Average cqi TxDiv band 4, lteAvg"
attr unit  cqi
scalar CAIN.eNodeB.nic.mac 	cqiDlTxDiv4:lteAvg 	4.2201492537313
attr source  cqiDlTxDiv4
attr title  "Average cqi TxDiv band 4, lteAvg"
attr unit  cqi
scalar CAIN.eNodeB.nic.mac 	cqiDlTxDiv4:lteAvg 	15
attr source  cqiDlTxDiv4
attr title  "Average cqi TxDiv band 4, lteAvg"
attr unit  cqi
scalar CAIN.eNodeB.nic.mac 	cqiDlTxDiv4:lteAvg 	15
attr source  cqiDlTxDiv4
attr title  "Average cqi TxDiv band 4, lteAvg"
attr unit  cqi
scalar CAIN.eNodeB.nic.mac 	cqiDlTxDiv4:lteAvg 	15
attr source  cqiDlTxDiv4
attr title  "Average cqi TxDiv band 4, lteAvg"
attr unit  cqi
scalar CAIN.eNodeB.nic.mac 	cqiDlTxDiv4:lteAvg 	2
attr source  cqiDlTxDiv4
attr title  "Average cqi TxDiv band 4, lteAvg"
attr unit  cqi
scalar CAIN.eNodeB.nic.mac 	cqiDlTxDiv4:lteAvg 	15
attr source  cqiDlTxDiv4
attr title  "Average cqi TxDiv band 4, lteAvg"
attr unit  cqi
scalar CAIN.eNodeB.nic.mac 	cqiDlTxDiv4:lteAvg 	4
attr source  cqiDlTxDiv4
attr title  "Average cqi TxDiv band 4, lteAvg"
attr unit  cqi
scalar CAIN.eNodeB.nic.mac 	cqiDlTxDiv4:lteAvg 	14.960820895522
attr source  cqiDlTxDiv4
attr title  "Average cqi TxDiv band 4, lteAvg"
attr unit  cqi
scalar CAIN.eNodeB.nic.mac 	cqiDlTxDiv4:lteAvg 	14.899253731343
attr source  cqiDlTxDiv4
attr title  "Average cqi TxDiv band 4, lteAvg"
attr unit  cqi
scalar CAIN.eNodeB.nic.mac 	cqiDlTxDiv4:lteAvg 	14
attr source  cqiDlTxDiv4
attr title  "Average cqi TxDiv band 4, lteAvg"
attr unit  cqi
scalar CAIN.eNodeB.nic.mac 	cqiDlTxDiv4:lteAvg 	10
attr source  cqiDlTxDiv4
attr title  "Average cqi TxDiv band 4, lteAvg"
attr unit  cqi
scalar CAIN.eNodeB.nic.mac 	cqiDlTxDiv4:lteAvg 	15
attr source  cqiDlTxDiv4
attr title  "Average cqi TxDiv band 4, lteAvg"
attr unit  cqi
scalar CAIN.eNodeB.nic.mac 	cqiDlTxDiv4:lteAvg 	7.8691588785047
attr source  cqiDlTxDiv4
attr title  "Average cqi TxDiv band 4, lteAvg"
attr unit  cqi
scalar CAIN.eNodeB.nic.mac 	cqiDlTxDiv4:lteAvg 	8
attr source  cqiDlTxDiv4
attr title  "Average cqi TxDiv band 4, lteAvg"
attr unit  cqi
scalar CAIN.eNodeB.nic.mac 	cqiDlTxDiv4:lteAvg 	8.7775700934579
attr source  cqiDlTxDiv4
attr title  "Average cqi TxDiv band 4, lteAvg"
attr unit  cqi
scalar CAIN.eNodeB.nic.mac 	cqiDlTxDiv4:lteAvg 	10.011214953271
attr source  cqiDlTxDiv4
attr title  "Average cqi TxDiv band 4, lteAvg"
attr unit  cqi
scalar CAIN.eNodeB.nic.mac 	cqiDlTxDiv4:lteAvg 	15
attr source  cqiDlTxDiv4
attr title  "Average cqi TxDiv band 4, lteAvg"
attr unit  cqi
scalar CAIN.eNodeB.nic.mac 	cqiDlTxDiv3:lteAvg 	9
attr source  cqiDlTxDiv3
attr title  "Average cqi TxDiv band 3, lteAvg"
attr unit  cqi
scalar CAIN.eNodeB.nic.mac 	cqiDlTxDiv3:lteAvg 	13
attr source  cqiDlTxDiv3
attr title  "Average cqi TxDiv band 3, lteAvg"
attr unit  cqi
scalar CAIN.eNodeB.nic.mac 	cqiDlTxDiv3:lteAvg 	10
attr source  cqiDlTxDiv3
attr title  "Average cqi TxDiv band 3, lteAvg"
attr unit  cqi
scalar CAIN.eNodeB.nic.mac 	cqiDlTxDiv3:lteAvg 	14.835820895522
attr source  cqiDlTxDiv3
attr title  "Average cqi TxDiv band 3, lteAvg"
attr unit  cqi
scalar CAIN.eNodeB.nic.mac 	cqiDlTxDiv3:lteAvg 	2
attr source  cqiDlTxDiv3
attr title  "Average cqi TxDiv band 3, lteAvg"
attr unit  cqi
scalar CAIN.eNodeB.nic.mac 	cqiDlTxDiv3:lteAvg 	11.061567164179
attr source  cqiDlTxDiv3
attr title  "Average cqi TxDiv band 3, lteAvg"
attr unit  cqi
scalar CAIN.eNodeB.nic.mac 	cqiDlTxDiv3:lteAvg 	2.0261194029851
attr source  cqiDlTxDiv3
attr title  "Average cqi TxDiv band 3, lteAvg"
attr unit  cqi
scalar CAIN.eNodeB.nic.mac 	cqiDlTxDiv3:lteAvg 	6.4832089552239
attr source  cqiDlTxDiv3
attr title  "Average cqi TxDiv band 3, lteAvg"
attr unit  cqi
scalar CAIN.eNodeB.nic.mac 	cqiDlTxDiv3:lteAvg 	14.641791044776
attr source  cqiDlTxDiv3
attr title  "Average cqi TxDiv band 3, lteAvg"
attr unit  cqi
scalar CAIN.eNodeB.nic.mac 	cqiDlTxDiv3:lteAvg 	14.992537313433
attr source  cqiDlTxDiv3
attr title  "Average cqi TxDiv band 3, lteAvg"
attr unit  cqi
scalar CAIN.eNodeB.nic.mac 	cqiDlTxDiv3:lteAvg 	15
attr source  cqiDlTxDiv3
attr title  "Average cqi TxDiv band 3, lteAvg"
attr unit  cqi
scalar CAIN.eNodeB.nic.mac 	cqiDlTxDiv3:lteAvg 	15
attr source  cqiDlTxDiv3
attr title  "Average cqi TxDiv band 3, lteAvg"
attr unit  cqi
scalar CAIN.eNodeB.nic.mac 	cqiDlTxDiv3:lteAvg 	4
attr source  cqiDlTxDiv3
attr title  "Average cqi TxDiv band 3, lteAvg"
attr unit  cqi
scalar CAIN.eNodeB.nic.mac 	cqiDlTxDiv3:lteAvg 	15
attr source  cqiDlTxDiv3
attr title  "Average cqi TxDiv band 3, lteAvg"
attr unit  cqi
scalar CAIN.eNodeB.nic.mac 	cqiDlTxDiv3:lteAvg 	2
attr source  cqiDlTxDiv3
attr title  "Average cqi TxDiv band 3, lteAvg"
attr unit  cqi
scalar CAIN.eNodeB.nic.mac 	cqiDlTxDiv3:lteAvg 	14.975746268657
attr source  cqiDlTxDiv3
attr title  "Average cqi TxDiv band 3, lteAvg"
attr unit  cqi
scalar CAIN.eNodeB.nic.mac 	cqiDlTxDiv3:lteAvg 	14.972014925373
attr source  cqiDlTxDiv3
attr title  "Average cqi TxDiv band 3, lteAvg"
attr unit  cqi
scalar CAIN.eNodeB.nic.mac 	cqiDlTxDiv3:lteAvg 	11
attr source  cqiDlTxDiv3
attr title  "Average cqi TxDiv band 3, lteAvg"
attr unit  cqi
scalar CAIN.eNodeB.nic.mac 	cqiDlTxDiv3:lteAvg 	9
attr source  cqiDlTxDiv3
attr title  "Average cqi TxDiv band 3, lteAvg"
attr unit  cqi
scalar CAIN.eNodeB.nic.mac 	cqiDlTxDiv3:lteAvg 	15
attr source  cqiDlTxDiv3
attr title  "Average cqi TxDiv band 3, lteAvg"
attr unit  cqi
scalar CAIN.eNodeB.nic.mac 	cqiDlTxDiv3:lteAvg 	9.7906542056075
attr source  cqiDlTxDiv3
attr title  "Average cqi TxDiv band 3, lteAvg"
attr unit  cqi
scalar CAIN.eNodeB.nic.mac 	cqiDlTxDiv3:lteAvg 	8
attr source  cqiDlTxDiv3
attr title  "Average cqi TxDiv band 3, lteAvg"
attr unit  cqi
scalar CAIN.eNodeB.nic.mac 	cqiDlTxDiv3:lteAvg 	3.1514018691589
attr source  cqiDlTxDiv3
attr title  "Average cqi TxDiv band 3, lteAvg"
attr unit  cqi
scalar CAIN.eNodeB.nic.mac 	cqiDlTxDiv3:lteAvg 	6.2130841121495
attr source  cqiDlTxDiv3
attr title  "Average cqi TxDiv band 3, lteAvg"
attr unit  cqi
scalar CAIN.eNodeB.nic.mac 	cqiDlTxDiv3:lteAvg 	15
attr source  cqiDlTxDiv3
attr title  "Average cqi TxDiv band 3, lteAvg"
attr unit  cqi
scalar CAIN.eNodeB.nic.mac 	cqiDlTxDiv2:lteAvg 	7
attr source  cqiDlTxDiv2
attr title  "Average cqi TxDiv band 2, lteAvg"
attr unit  cqi
scalar CAIN.eNodeB.nic.mac 	cqiDlTxDiv2:lteAvg 	13
attr source  cqiDlTxDiv2
attr title  "Average cqi TxDiv band 2, lteAvg"
attr unit  cqi
scalar CAIN.eNodeB.nic.mac 	cqiDlTxDiv2:lteAvg 	8
attr source  cqiDlTxDiv2
attr title  "Average cqi TxDiv band 2, lteAvg"
attr unit  cqi
scalar CAIN.eNodeB.nic.mac 	cqiDlTxDiv2:lteAvg 	14.798507462687
attr source  cqiDlTxDiv2
attr title  "Average cqi TxDiv band 2, lteAvg"
attr unit  cqi
scalar CAIN.eNodeB.nic.mac 	cqiDlTxDiv2:lteAvg 	7
attr source  cqiDlTxDiv2
attr title  "Average cqi TxDiv band 2, lteAvg"
attr unit  cqi
scalar CAIN.eNodeB.nic.mac 	cqiDlTxDiv2:lteAvg 	14.848880597015
attr source  cqiDlTxDiv2
attr title  "Average cqi TxDiv band 2, lteAvg"
attr unit  cqi
scalar CAIN.eNodeB.nic.mac 	cqiDlTxDiv2:lteAvg 	7.6977611940299
attr source  cqiDlTxDiv2
attr title  "Average cqi TxDiv band 2, lteAvg"
attr unit  cqi
scalar CAIN.eNodeB.nic.mac 	cqiDlTxDiv2:lteAvg 	14.988805970149
attr source  cqiDlTxDiv2
attr title  "Average cqi TxDiv band 2, lteAvg"
attr unit  cqi
scalar CAIN.eNodeB.nic.mac 	cqiDlTxDiv2:lteAvg 	8.089552238806
attr source  cqiDlTxDiv2
attr title  "Average cqi TxDiv band 2, lteAvg"
attr unit  cqi
scalar CAIN.eNodeB.nic.mac 	cqiDlTxDiv2:lteAvg 	14.975746268657
attr source  cqiDlTxDiv2
attr title  "Average cqi TxDiv band 2, lteAvg"
attr unit  cqi
scalar CAIN.eNodeB.nic.mac 	cqiDlTxDiv2:lteAvg 	15
attr source  cqiDlTxDiv2
attr title  "Average cqi TxDiv band 2, lteAvg"
attr unit  cqi
scalar CAIN.eNodeB.nic.mac 	cqiDlTxDiv2:lteAvg 	14.988805970149
attr source  cqiDlTxDiv2
attr title  "Average cqi TxDiv band 2, lteAvg"
attr unit  cqi
scalar CAIN.eNodeB.nic.mac 	cqiDlTxDiv2:lteAvg 	6
attr source  cqiDlTxDiv2
attr title  "Average cqi TxDiv band 2, lteAvg"
attr unit  cqi
scalar CAIN.eNodeB.nic.mac 	cqiDlTxDiv2:lteAvg 	13
attr source  cqiDlTxDiv2
attr title  "Average cqi TxDiv band 2, lteAvg"
attr unit  cqi
scalar CAIN.eNodeB.nic.mac 	cqiDlTxDiv2:lteAvg 	3
attr source  cqiDlTxDiv2
attr title  "Average cqi TxDiv band 2, lteAvg"
attr unit  cqi
scalar CAIN.eNodeB.nic.mac 	cqiDlTxDiv2:lteAvg 	14.92723880597
attr source  cqiDlTxDiv2
attr title  "Average cqi TxDiv band 2, lteAvg"
attr unit  cqi
scalar CAIN.eNodeB.nic.mac 	cqiDlTxDiv2:lteAvg 	14.951492537313
attr source  cqiDlTxDiv2
attr title  "Average cqi TxDiv band 2, lteAvg"
attr unit  cqi
scalar CAIN.eNodeB.nic.mac 	cqiDlTxDiv2:lteAvg 	7
attr source  cqiDlTxDiv2
attr title  "Average cqi TxDiv band 2, lteAvg"
attr unit  cqi
scalar CAIN.eNodeB.nic.mac 	cqiDlTxDiv2:lteAvg 	13
attr source  cqiDlTxDiv2
attr title  "Average cqi TxDiv band 2, lteAvg"
attr unit  cqi
scalar CAIN.eNodeB.nic.mac 	cqiDlTxDiv2:lteAvg 	15
attr source  cqiDlTxDiv2
attr title  "Average cqi TxDiv band 2, lteAvg"
attr unit  cqi
scalar CAIN.eNodeB.nic.mac 	cqiDlTxDiv2:lteAvg 	8.8168224299065
attr source  cqiDlTxDiv2
attr title  "Average cqi TxDiv band 2, lteAvg"
attr unit  cqi
scalar CAIN.eNodeB.nic.mac 	cqiDlTxDiv2:lteAvg 	8
attr source  cqiDlTxDiv2
attr title  "Average cqi TxDiv band 2, lteAvg"
attr unit  cqi
scalar CAIN.eNodeB.nic.mac 	cqiDlTxDiv2:lteAvg 	5.988785046729
attr source  cqiDlTxDiv2
attr title  "Average cqi TxDiv band 2, lteAvg"
attr unit  cqi
scalar CAIN.eNodeB.nic.mac 	cqiDlTxDiv2:lteAvg 	6.1981308411215
attr source  cqiDlTxDiv2
attr title  "Average cqi TxDiv band 2, lteAvg"
attr unit  cqi
scalar CAIN.eNodeB.nic.mac 	cqiDlTxDiv2:lteAvg 	15
attr source  cqiDlTxDiv2
attr title  "Average cqi TxDiv band 2, lteAvg"
attr unit  cqi
scalar CAIN.eNodeB.nic.mac 	cqiDlTxDiv1:lteAvg 	8
attr source  cqiDlTxDiv1
attr title  "Average cqi TxDiv band 1, lteAvg"
attr unit  cqi
scalar CAIN.eNodeB.nic.mac 	cqiDlTxDiv1:lteAvg 	13
attr source  cqiDlTxDiv1
attr title  "Average cqi TxDiv band 1, lteAvg"
attr unit  cqi
scalar CAIN.eNodeB.nic.mac 	cqiDlTxDiv1:lteAvg 	14
attr source  cqiDlTxDiv1
attr title  "Average cqi TxDiv band 1, lteAvg"
attr unit  cqi
scalar CAIN.eNodeB.nic.mac 	cqiDlTxDiv1:lteAvg 	10.154850746269
attr source  cqiDlTxDiv1
attr title  "Average cqi TxDiv band 1, lteAvg"
attr unit  cqi
scalar CAIN.eNodeB.nic.mac 	cqiDlTxDiv1:lteAvg 	13
attr source  cqiDlTxDiv1
attr title  "Average cqi TxDiv band 1, lteAvg"
attr unit  cqi
scalar CAIN.eNodeB.nic.mac 	cqiDlTxDiv1:lteAvg 	8.1753731343284
attr source  cqiDlTxDiv1
attr title  "Average cqi TxDiv band 1, lteAvg"
attr unit  cqi
scalar CAIN.eNodeB.nic.mac 	cqiDlTxDiv1:lteAvg 	2.0429104477612
attr source  cqiDlTxDiv1
attr title  "Average cqi TxDiv band 1, lteAvg"
attr unit  cqi
scalar CAIN.eNodeB.nic.mac 	cqiDlTxDiv1:lteAvg 	14.96828358209
attr source  cqiDlTxDiv1
attr title  "Average cqi TxDiv band 1, lteAvg"
attr unit  cqi
scalar CAIN.eNodeB.nic.mac 	cqiDlTxDiv1:lteAvg 	12.723880597015
attr source  cqiDlTxDiv1
attr title  "Average cqi TxDiv band 1, lteAvg"
attr unit  cqi
scalar CAIN.eNodeB.nic.mac 	cqiDlTxDiv1:lteAvg 	14.975746268657
attr source  cqiDlTxDiv1
attr title  "Average cqi TxDiv band 1, lteAvg"
attr unit  cqi
scalar CAIN.eNodeB.nic.mac 	cqiDlTxDiv1:lteAvg 	15
attr source  cqiDlTxDiv1
attr title  "Average cqi TxDiv band 1, lteAvg"
attr unit  cqi
scalar CAIN.eNodeB.nic.mac 	cqiDlTxDiv1:lteAvg 	15
attr source  cqiDlTxDiv1
attr title  "Average cqi TxDiv band 1, lteAvg"
attr unit  cqi
scalar CAIN.eNodeB.nic.mac 	cqiDlTxDiv1:lteAvg 	2
attr source  cqiDlTxDiv1
attr title  "Average cqi TxDiv band 1, lteAvg"
attr unit  cqi
scalar CAIN.eNodeB.nic.mac 	cqiDlTxDiv1:lteAvg 	15
attr source  cqiDlTxDiv1
attr title  "Average cqi TxDiv band 1, lteAvg"
attr unit  cqi
scalar CAIN.eNodeB.nic.mac 	cqiDlTxDiv1:lteAvg 	2
attr source  cqiDlTxDiv1
attr title  "Average cqi TxDiv band 1, lteAvg"
attr unit  cqi
scalar CAIN.eNodeB.nic.mac 	cqiDlTxDiv1:lteAvg 	14.977611940299
attr source  cqiDlTxDiv1
attr title  "Average cqi TxDiv band 1, lteAvg"
attr unit  cqi
scalar CAIN.eNodeB.nic.mac 	cqiDlTxDiv1:lteAvg 	14.955223880597
attr source  cqiDlTxDiv1
attr title  "Average cqi TxDiv band 1, lteAvg"
attr unit  cqi
scalar CAIN.eNodeB.nic.mac 	cqiDlTxDiv1:lteAvg 	15
attr source  cqiDlTxDiv1
attr title  "Average cqi TxDiv band 1, lteAvg"
attr unit  cqi
scalar CAIN.eNodeB.nic.mac 	cqiDlTxDiv1:lteAvg 	9
attr source  cqiDlTxDiv1
attr title  "Average cqi TxDiv band 1, lteAvg"
attr unit  cqi
scalar CAIN.eNodeB.nic.mac 	cqiDlTxDiv1:lteAvg 	15
attr source  cqiDlTxDiv1
attr title  "Average cqi TxDiv band 1, lteAvg"
attr unit  cqi
scalar CAIN.eNodeB.nic.mac 	cqiDlTxDiv1:lteAvg 	7.8766355140187
attr source  cqiDlTxDiv1
attr title  "Average cqi TxDiv band 1, lteAvg"
attr unit  cqi
scalar CAIN.eNodeB.nic.mac 	cqiDlTxDiv1:lteAvg 	6
attr source  cqiDlTxDiv1
attr title  "Average cqi TxDiv band 1, lteAvg"
attr unit  cqi
scalar CAIN.eNodeB.nic.mac 	cqiDlTxDiv1:lteAvg 	7.8168224299065
attr source  cqiDlTxDiv1
attr title  "Average cqi TxDiv band 1, lteAvg"
attr unit  cqi
scalar CAIN.eNodeB.nic.mac 	cqiDlTxDiv1:lteAvg 	8.0523364485981
attr source  cqiDlTxDiv1
attr title  "Average cqi TxDiv band 1, lteAvg"
attr unit  cqi
scalar CAIN.eNodeB.nic.mac 	cqiDlTxDiv1:lteAvg 	15
attr source  cqiDlTxDiv1
attr title  "Average cqi TxDiv band 1, lteAvg"
attr unit  cqi
scalar CAIN.eNodeB.nic.mac 	cqiDlTxDiv0:lteAvg 	6
attr source  cqiDlTxDiv0
attr title  "Average cqi TxDiv band 0, lteAvg"
attr unit  cqi
scalar CAIN.eNodeB.nic.mac 	cqiDlTxDiv0:lteAvg 	7
attr source  cqiDlTxDiv0
attr title  "Average cqi TxDiv band 0, lteAvg"
attr unit  cqi
scalar CAIN.eNodeB.nic.mac 	cqiDlTxDiv0:lteAvg 	9
attr source  cqiDlTxDiv0
attr title  "Average cqi TxDiv band 0, lteAvg"
attr unit  cqi
scalar CAIN.eNodeB.nic.mac 	cqiDlTxDiv0:lteAvg 	14.876865671642
attr source  cqiDlTxDiv0
attr title  "Average cqi TxDiv band 0, lteAvg"
attr unit  cqi
scalar CAIN.eNodeB.nic.mac 	cqiDlTxDiv0:lteAvg 	2
attr source  cqiDlTxDiv0
attr title  "Average cqi TxDiv band 0, lteAvg"
attr unit  cqi
scalar CAIN.eNodeB.nic.mac 	cqiDlTxDiv0:lteAvg 	7.3470149253731
attr source  cqiDlTxDiv0
attr title  "Average cqi TxDiv band 0, lteAvg"
attr unit  cqi
scalar CAIN.eNodeB.nic.mac 	cqiDlTxDiv0:lteAvg 	2.0223880597015
attr source  cqiDlTxDiv0
attr title  "Average cqi TxDiv band 0, lteAvg"
attr unit  cqi
scalar CAIN.eNodeB.nic.mac 	cqiDlTxDiv0:lteAvg 	14.960820895522
attr source  cqiDlTxDiv0
attr title  "Average cqi TxDiv band 0, lteAvg"
attr unit  cqi
scalar CAIN.eNodeB.nic.mac 	cqiDlTxDiv0:lteAvg 	14.67723880597
attr source  cqiDlTxDiv0
attr title  "Average cqi TxDiv band 0, lteAvg"
attr unit  cqi
scalar CAIN.eNodeB.nic.mac 	cqiDlTxDiv0:lteAvg 	14.996268656716
attr source  cqiDlTxDiv0
attr title  "Average cqi TxDiv band 0, lteAvg"
attr unit  cqi
scalar CAIN.eNodeB.nic.mac 	cqiDlTxDiv0:lteAvg 	13
attr source  cqiDlTxDiv0
attr title  "Average cqi TxDiv band 0, lteAvg"
attr unit  cqi
scalar CAIN.eNodeB.nic.mac 	cqiDlTxDiv0:lteAvg 	14.977611940299
attr source  cqiDlTxDiv0
attr title  "Average cqi TxDiv band 0, lteAvg"
attr unit  cqi
scalar CAIN.eNodeB.nic.mac 	cqiDlTxDiv0:lteAvg 	4
attr source  cqiDlTxDiv0
attr title  "Average cqi TxDiv band 0, lteAvg"
attr unit  cqi
scalar CAIN.eNodeB.nic.mac 	cqiDlTxDiv0:lteAvg 	15
attr source  cqiDlTxDiv0
attr title  "Average cqi TxDiv band 0, lteAvg"
attr unit  cqi
scalar CAIN.eNodeB.nic.mac 	cqiDlTxDiv0:lteAvg 	2
attr source  cqiDlTxDiv0
attr title  "Average cqi TxDiv band 0, lteAvg"
attr unit  cqi
scalar CAIN.eNodeB.nic.mac 	cqiDlTxDiv0:lteAvg 	14.972014925373
attr source  cqiDlTxDiv0
attr title  "Average cqi TxDiv band 0, lteAvg"
attr unit  cqi
scalar CAIN.eNodeB.nic.mac 	cqiDlTxDiv0:lteAvg 	14.914179104478
attr source  cqiDlTxDiv0
attr title  "Average cqi TxDiv band 0, lteAvg"
attr unit  cqi
scalar CAIN.eNodeB.nic.mac 	cqiDlTxDiv0:lteAvg 	15
attr source  cqiDlTxDiv0
attr title  "Average cqi TxDiv band 0, lteAvg"
attr unit  cqi
scalar CAIN.eNodeB.nic.mac 	cqiDlTxDiv0:lteAvg 	14
attr source  cqiDlTxDiv0
attr title  "Average cqi TxDiv band 0, lteAvg"
attr unit  cqi
scalar CAIN.eNodeB.nic.mac 	cqiDlTxDiv0:lteAvg 	15
attr source  cqiDlTxDiv0
attr title  "Average cqi TxDiv band 0, lteAvg"
attr unit  cqi
scalar CAIN.eNodeB.nic.mac 	cqiDlTxDiv0:lteAvg 	3.192523364486
attr source  cqiDlTxDiv0
attr title  "Average cqi TxDiv band 0, lteAvg"
attr unit  cqi
scalar CAIN.eNodeB.nic.mac 	cqiDlTxDiv0:lteAvg 	13
attr source  cqiDlTxDiv0
attr title  "Average cqi TxDiv band 0, lteAvg"
attr unit  cqi
scalar CAIN.eNodeB.nic.mac 	cqiDlTxDiv0:lteAvg 	2.188785046729
attr source  cqiDlTxDiv0
attr title  "Average cqi TxDiv band 0, lteAvg"
attr unit  cqi
scalar CAIN.eNodeB.nic.mac 	cqiDlTxDiv0:lteAvg 	12.943925233645
attr source  cqiDlTxDiv0
attr title  "Average cqi TxDiv band 0, lteAvg"
attr unit  cqi
scalar CAIN.eNodeB.nic.mac 	cqiDlTxDiv0:lteAvg 	15
attr source  cqiDlTxDiv0
attr title  "Average cqi TxDiv band 0, lteAvg"
attr unit  cqi
scalar CAIN.eNodeB.nic.mac 	cqiDlSpmux4:lteAvg 	2
attr source  cqiDlSpmux4
attr title  "Average cqi Spmux band 4, lteAvg"
attr unit  cqi
scalar CAIN.eNodeB.nic.mac 	cqiDlSpmux4:lteAvg 	5
attr source  cqiDlSpmux4
attr title  "Average cqi Spmux band 4, lteAvg"
attr unit  cqi
scalar CAIN.eNodeB.nic.mac 	cqiDlSpmux4:lteAvg 	2
attr source  cqiDlSpmux4
attr title  "Average cqi Spmux band 4, lteAvg"
attr unit  cqi
scalar CAIN.eNodeB.nic.mac 	cqiDlSpmux4:lteAvg 	2.1175373134328
attr source  cqiDlSpmux4
attr title  "Average cqi Spmux band 4, lteAvg"
attr unit  cqi
scalar CAIN.eNodeB.nic.mac 	cqiDlSpmux4:lteAvg 	2
attr source  cqiDlSpmux4
attr title  "Average cqi Spmux band 4, lteAvg"
attr unit  cqi
scalar CAIN.eNodeB.nic.mac 	cqiDlSpmux4:lteAvg 	5.8880597014925
attr source  cqiDlSpmux4
attr title  "Average cqi Spmux band 4, lteAvg"
attr unit  cqi
scalar CAIN.eNodeB.nic.mac 	cqiDlSpmux4:lteAvg 	2
attr source  cqiDlSpmux4
attr title  "Average cqi Spmux band 4, lteAvg"
attr unit  cqi
scalar CAIN.eNodeB.nic.mac 	cqiDlSpmux4:lteAvg 	2.2574626865672
attr source  cqiDlSpmux4
attr title  "Average cqi Spmux band 4, lteAvg"
attr unit  cqi
scalar CAIN.eNodeB.nic.mac 	cqiDlSpmux4:lteAvg 	2.0149253731343
attr source  cqiDlSpmux4
attr title  "Average cqi Spmux band 4, lteAvg"
attr unit  cqi
scalar CAIN.eNodeB.nic.mac 	cqiDlSpmux4:lteAvg 	7.3992537313433
attr source  cqiDlSpmux4
attr title  "Average cqi Spmux band 4, lteAvg"
attr unit  cqi
scalar CAIN.eNodeB.nic.mac 	cqiDlSpmux4:lteAvg 	6
attr source  cqiDlSpmux4
attr title  "Average cqi Spmux band 4, lteAvg"
attr unit  cqi
scalar CAIN.eNodeB.nic.mac 	cqiDlSpmux4:lteAvg 	9.9869402985075
attr source  cqiDlSpmux4
attr title  "Average cqi Spmux band 4, lteAvg"
attr unit  cqi
scalar CAIN.eNodeB.nic.mac 	cqiDlSpmux4:lteAvg 	2
attr source  cqiDlSpmux4
attr title  "Average cqi Spmux band 4, lteAvg"
attr unit  cqi
scalar CAIN.eNodeB.nic.mac 	cqiDlSpmux4:lteAvg 	6
attr source  cqiDlSpmux4
attr title  "Average cqi Spmux band 4, lteAvg"
attr unit  cqi
scalar CAIN.eNodeB.nic.mac 	cqiDlSpmux4:lteAvg 	2
attr source  cqiDlSpmux4
attr title  "Average cqi Spmux band 4, lteAvg"
attr unit  cqi
scalar CAIN.eNodeB.nic.mac 	cqiDlSpmux4:lteAvg 	5.0727611940299
attr source  cqiDlSpmux4
attr title  "Average cqi Spmux band 4, lteAvg"
attr unit  cqi
scalar CAIN.eNodeB.nic.mac 	cqiDlSpmux4:lteAvg 	5.0317164179104
attr source  cqiDlSpmux4
attr title  "Average cqi Spmux band 4, lteAvg"
attr unit  cqi
scalar CAIN.eNodeB.nic.mac 	cqiDlSpmux4:lteAvg 	5
attr source  cqiDlSpmux4
attr title  "Average cqi Spmux band 4, lteAvg"
attr unit  cqi
scalar CAIN.eNodeB.nic.mac 	cqiDlSpmux4:lteAvg 	2
attr source  cqiDlSpmux4
attr title  "Average cqi Spmux band 4, lteAvg"
attr unit  cqi
scalar CAIN.eNodeB.nic.mac 	cqiDlSpmux4:lteAvg 	8
attr source  cqiDlSpmux4
attr title  "Average cqi Spmux band 4, lteAvg"
attr unit  cqi
scalar CAIN.eNodeB.nic.mac 	cqiDlSpmux4:lteAvg 	2
attr source  cqiDlSpmux4
attr title  "Average cqi Spmux band 4, lteAvg"
attr unit  cqi
scalar CAIN.eNodeB.nic.mac 	cqiDlSpmux4:lteAvg 	2
attr source  cqiDlSpmux4
attr title  "Average cqi Spmux band 4, lteAvg"
attr unit  cqi
scalar CAIN.eNodeB.nic.mac 	cqiDlSpmux4:lteAvg 	2
attr source  cqiDlSpmux4
attr title  "Average cqi Spmux band 4, lteAvg"
attr unit  cqi
scalar CAIN.eNodeB.nic.mac 	cqiDlSpmux4:lteAvg 	2.0504672897196
attr source  cqiDlSpmux4
attr title  "Average cqi Spmux band 4, lteAvg"
attr unit  cqi
scalar CAIN.eNodeB.nic.mac 	cqiDlSpmux4:lteAvg 	14.951401869159
attr source  cqiDlSpmux4
attr title  "Average cqi Spmux band 4, lteAvg"
attr unit  cqi
scalar CAIN.eNodeB.nic.mac 	cqiDlSpmux3:lteAvg 	2
attr source  cqiDlSpmux3
attr title  "Average cqi Spmux band 3, lteAvg"
attr unit  cqi
scalar CAIN.eNodeB.nic.mac 	cqiDlSpmux3:lteAvg 	4
attr source  cqiDlSpmux3
attr title  "Average cqi Spmux band 3, lteAvg"
attr unit  cqi
scalar CAIN.eNodeB.nic.mac 	cqiDlSpmux3:lteAvg 	2
attr source  cqiDlSpmux3
attr title  "Average cqi Spmux band 3, lteAvg"
attr unit  cqi
scalar CAIN.eNodeB.nic.mac 	cqiDlSpmux3:lteAvg 	6.8339552238806
attr source  cqiDlSpmux3
attr title  "Average cqi Spmux band 3, lteAvg"
attr unit  cqi
scalar CAIN.eNodeB.nic.mac 	cqiDlSpmux3:lteAvg 	2
attr source  cqiDlSpmux3
attr title  "Average cqi Spmux band 3, lteAvg"
attr unit  cqi
scalar CAIN.eNodeB.nic.mac 	cqiDlSpmux3:lteAvg 	3.0708955223881
attr source  cqiDlSpmux3
attr title  "Average cqi Spmux band 3, lteAvg"
attr unit  cqi
scalar CAIN.eNodeB.nic.mac 	cqiDlSpmux3:lteAvg 	1.9962686567164
attr source  cqiDlSpmux3
attr title  "Average cqi Spmux band 3, lteAvg"
attr unit  cqi
scalar CAIN.eNodeB.nic.mac 	cqiDlSpmux3:lteAvg 	2.2686567164179
attr source  cqiDlSpmux3
attr title  "Average cqi Spmux band 3, lteAvg"
attr unit  cqi
scalar CAIN.eNodeB.nic.mac 	cqiDlSpmux3:lteAvg 	4.8675373134328
attr source  cqiDlSpmux3
attr title  "Average cqi Spmux band 3, lteAvg"
attr unit  cqi
scalar CAIN.eNodeB.nic.mac 	cqiDlSpmux3:lteAvg 	14.861940298507
attr source  cqiDlSpmux3
attr title  "Average cqi Spmux band 3, lteAvg"
attr unit  cqi
scalar CAIN.eNodeB.nic.mac 	cqiDlSpmux3:lteAvg 	6
attr source  cqiDlSpmux3
attr title  "Average cqi Spmux band 3, lteAvg"
attr unit  cqi
scalar CAIN.eNodeB.nic.mac 	cqiDlSpmux3:lteAvg 	6.2126865671642
attr source  cqiDlSpmux3
attr title  "Average cqi Spmux band 3, lteAvg"
attr unit  cqi
scalar CAIN.eNodeB.nic.mac 	cqiDlSpmux3:lteAvg 	2
attr source  cqiDlSpmux3
attr title  "Average cqi Spmux band 3, lteAvg"
attr unit  cqi
scalar CAIN.eNodeB.nic.mac 	cqiDlSpmux3:lteAvg 	6
attr source  cqiDlSpmux3
attr title  "Average cqi Spmux band 3, lteAvg"
attr unit  cqi
scalar CAIN.eNodeB.nic.mac 	cqiDlSpmux3:lteAvg 	2
attr source  cqiDlSpmux3
attr title  "Average cqi Spmux band 3, lteAvg"
attr unit  cqi
scalar CAIN.eNodeB.nic.mac 	cqiDlSpmux3:lteAvg 	5.1138059701493
attr source  cqiDlSpmux3
attr title  "Average cqi Spmux band 3, lteAvg"
attr unit  cqi
scalar CAIN.eNodeB.nic.mac 	cqiDlSpmux3:lteAvg 	6.9608208955224
attr source  cqiDlSpmux3
attr title  "Average cqi Spmux band 3, lteAvg"
attr unit  cqi
scalar CAIN.eNodeB.nic.mac 	cqiDlSpmux3:lteAvg 	3
attr source  cqiDlSpmux3
attr title  "Average cqi Spmux band 3, lteAvg"
attr unit  cqi
scalar CAIN.eNodeB.nic.mac 	cqiDlSpmux3:lteAvg 	2
attr source  cqiDlSpmux3
attr title  "Average cqi Spmux band 3, lteAvg"
attr unit  cqi
scalar CAIN.eNodeB.nic.mac 	cqiDlSpmux3:lteAvg 	7
attr source  cqiDlSpmux3
attr title  "Average cqi Spmux band 3, lteAvg"
attr unit  cqi
scalar CAIN.eNodeB.nic.mac 	cqiDlSpmux3:lteAvg 	2.0056074766355
attr source  cqiDlSpmux3
attr title  "Average cqi Spmux band 3, lteAvg"
attr unit  cqi
scalar CAIN.eNodeB.nic.mac 	cqiDlSpmux3:lteAvg 	2
attr source  cqiDlSpmux3
attr title  "Average cqi Spmux band 3, lteAvg"
attr unit  cqi
scalar CAIN.eNodeB.nic.mac 	cqiDlSpmux3:lteAvg 	2
attr source  cqiDlSpmux3
attr title  "Average cqi Spmux band 3, lteAvg"
attr unit  cqi
scalar CAIN.eNodeB.nic.mac 	cqiDlSpmux3:lteAvg 	2.0691588785047
attr source  cqiDlSpmux3
attr title  "Average cqi Spmux band 3, lteAvg"
attr unit  cqi
scalar CAIN.eNodeB.nic.mac 	cqiDlSpmux3:lteAvg 	12.082242990654
attr source  cqiDlSpmux3
attr title  "Average cqi Spmux band 3, lteAvg"
attr unit  cqi
scalar CAIN.eNodeB.nic.mac 	cqiDlSpmux2:lteAvg 	2
attr source  cqiDlSpmux2
attr title  "Average cqi Spmux band 2, lteAvg"
attr unit  cqi
scalar CAIN.eNodeB.nic.mac 	cqiDlSpmux2:lteAvg 	4
attr source  cqiDlSpmux2
attr title  "Average cqi Spmux band 2, lteAvg"
attr unit  cqi
scalar CAIN.eNodeB.nic.mac 	cqiDlSpmux2:lteAvg 	2
attr source  cqiDlSpmux2
attr title  "Average cqi Spmux band 2, lteAvg"
attr unit  cqi
scalar CAIN.eNodeB.nic.mac 	cqiDlSpmux2:lteAvg 	6.8097014925373
attr source  cqiDlSpmux2
attr title  "Average cqi Spmux band 2, lteAvg"
attr unit  cqi
scalar CAIN.eNodeB.nic.mac 	cqiDlSpmux2:lteAvg 	2
attr source  cqiDlSpmux2
attr title  "Average cqi Spmux band 2, lteAvg"
attr unit  cqi
scalar CAIN.eNodeB.nic.mac 	cqiDlSpmux2:lteAvg 	5.9160447761194
attr source  cqiDlSpmux2
attr title  "Average cqi Spmux band 2, lteAvg"
attr unit  cqi
scalar CAIN.eNodeB.nic.mac 	cqiDlSpmux2:lteAvg 	1.9962686567164
attr source  cqiDlSpmux2
attr title  "Average cqi Spmux band 2, lteAvg"
attr unit  cqi
scalar CAIN.eNodeB.nic.mac 	cqiDlSpmux2:lteAvg 	7.035447761194
attr source  cqiDlSpmux2
attr title  "Average cqi Spmux band 2, lteAvg"
attr unit  cqi
scalar CAIN.eNodeB.nic.mac 	cqiDlSpmux2:lteAvg 	2.0652985074627
attr source  cqiDlSpmux2
attr title  "Average cqi Spmux band 2, lteAvg"
attr unit  cqi
scalar CAIN.eNodeB.nic.mac 	cqiDlSpmux2:lteAvg 	14.889925373134
attr source  cqiDlSpmux2
attr title  "Average cqi Spmux band 2, lteAvg"
attr unit  cqi
scalar CAIN.eNodeB.nic.mac 	cqiDlSpmux2:lteAvg 	6
attr source  cqiDlSpmux2
attr title  "Average cqi Spmux band 2, lteAvg"
attr unit  cqi
scalar CAIN.eNodeB.nic.mac 	cqiDlSpmux2:lteAvg 	10.897388059701
attr source  cqiDlSpmux2
attr title  "Average cqi Spmux band 2, lteAvg"
attr unit  cqi
[...]
attr interpolationmode  none
attr source  receivedPacketFromUpperLayer
scalar CAIN.ueD2DTx[23].nic.mac 	racServedDevsSignal:count 	0
attr interpolationmode  none
attr title  "# of devices served on rac arriavall, count"
scalar CAIN.ueD2DTx[23].nic.mac 	racServedDevsSignal:max 	-nan
attr interpolationmode  none
attr title  "# of devices served on rac arriavall, max"
scalar CAIN.ueD2DTx[23].nic.mac 	racServedDevsSignal:last 	-nan
attr interpolationmode  none
attr title  "# of devices served on rac arriavall, last"
scalar CAIN.ueD2DTx[23].nic.mac 	racDistanceSignal:count 	0
attr interpolationmode  none
attr title  "Rac distance to enb, count"
scalar CAIN.ueD2DTx[23].nic.mac 	racpkt:count 	0
attr interpolationmode  none
attr title  "eNB received racpkt message, count"
scalar CAIN.ueD2DTx[23].nic.mac 	TotalServedDevs:count 	0
attr interpolationmode  none
attr title  "# of total devices served, count"
scalar CAIN.ueD2DTx[23].nic.mac 	TotalServedDevs:max 	-nan
attr interpolationmode  none
attr title  "# of total devices served, max"
scalar CAIN.ueD2DTx[23].nic.mac 	TotalServedDevs:last 	-nan
attr interpolationmode  none
attr title  "# of total devices served, last"
scalar CAIN.ueD2DTx[23].nic.mac 	ServedHopDevs:count 	0
attr interpolationmode  none
attr title  "# of devices served on hop forwarding, count"
scalar CAIN.ueD2DTx[23].nic.mac 	ServedHopDevs:max 	-nan
attr interpolationmode  none
attr title  "# of devices served on hop forwarding, max"
scalar CAIN.ueD2DTx[23].nic.mac 	ServedHopDevs:last 	-nan
attr interpolationmode  none
attr title  "# of devices served on hop forwarding, last"
scalar CAIN.ueD2DTx[23].nic.mac 	ServedDevs:count 	0
attr interpolationmode  none
attr title  "# of devices served on cain forwarding, count"
scalar CAIN.ueD2DTx[23].nic.mac 	ServedDevs:max 	-nan
attr interpolationmode  none
attr title  "# of devices served on cain forwarding, max"
scalar CAIN.ueD2DTx[23].nic.mac 	ServedDevs:last 	-nan
attr interpolationmode  none
attr title  "# of devices served on cain forwarding, last"
scalar CAIN.ueD2DTx[23].nic.mac 	HopDistanceSignal:count 	0
attr interpolationmode  none
attr title  "Distance to enb with hop forwarding, count"
scalar CAIN.ueD2DTx[23].nic.mac 	DistanceSignal:count 	0
attr interpolationmode  none
attr title  "Distance to enb, count"
scalar CAIN.ueD2DTx[23].nic.mac 	CainHopMessageSent:count 	624
attr interpolationmode  none
attr title  "# of Sent CAIN hop message, count"
scalar CAIN.ueD2DTx[23].nic.mac 	CainMessageSent:count 	0
attr interpolationmode  none
attr title  "# of Sent CAIN message, count"
scalar CAIN.ueD2DTx[23].nic.mac 	DropedHopMessage:count 	0
attr interpolationmode  none
attr title  "Droped Hop CAIN message due to RB not available, count"
scalar CAIN.ueD2DTx[23].nic.mac 	DropedCainMessage:count 	0
attr interpolationmode  none
attr title  "Droped CAIN message due to RB not available, count"
scalar CAIN.ueD2DTx[23].nic.mac 	CainHopMessage:count 	0
attr interpolationmode  none
attr title  "eNB received CAIN hop message, count"
scalar CAIN.ueD2DTx[23].nic.mac 	CainMessage:count 	0
attr interpolationmode  none
attr title  "eNB received CAIN message, count"
scalar CAIN.ueD2DTx[23].nic.mac 	measuredItbs:mean 	-nan
attr source  measuredItbs
attr title  "TBS index, mean"
attr unit  ""
scalar CAIN.ueD2DTx[23].nic.mac 	harqErrorRate_4th_D2D:mean 	-nan
attr source  harqErrorRate_4th_D2D
attr title  "Harq Error Rate D2D, mean"
attr unit  ""
scalar CAIN.ueD2DTx[23].nic.mac 	harqErrorRate_4th_Dl:mean 	-nan
attr source  harqErrorRate_4th_Dl
attr title  "Harq Error Rate Dl, mean"
attr unit  ""
scalar CAIN.ueD2DTx[23].nic.mac 	harqErrorRate_4th_Ul:mean 	-nan
attr source  harqErrorRate_4th_Ul
attr title  "Harq Error Rate Dl, mean"
attr unit  ""
scalar CAIN.ueD2DTx[23].nic.mac 	harqErrorRate_3rd_D2D:mean 	-nan
attr source  harqErrorRate_3rd_D2D
attr title  "Harq Error Rate D2D, mean"
attr unit  ""
scalar CAIN.ueD2DTx[23].nic.mac 	harqErrorRate_3rd_Dl:mean 	-nan
attr source  harqErrorRate_3rd_Dl
attr title  "Harq Error Rate Dl, mean"
attr unit  ""
scalar CAIN.ueD2DTx[23].nic.mac 	harqErrorRate_3rd_Ul:mean 	-nan
attr source  harqErrorRate_3rd_Ul
attr title  "Harq Error Rate Dl, mean"
attr unit  ""
scalar CAIN.ueD2DTx[23].nic.mac 	harqErrorRate_2nd_D2D:mean 	-nan
attr source  harqErrorRate_2nd_D2D
attr title  "Harq Error Rate D2D, mean"
attr unit  ""
scalar CAIN.ueD2DTx[23].nic.mac 	harqErrorRate_2nd_Dl:mean 	-nan
attr source  harqErrorRate_2nd_Dl
attr title  "Harq Error Rate Dl, mean"
attr unit  ""
scalar CAIN.ueD2DTx[23].nic.mac 	harqErrorRate_2nd_Ul:mean 	-nan
attr source  harqErrorRate_2nd_Ul
attr title  "Harq Error Rate Dl, mean"
attr unit  ""
scalar CAIN.ueD2DTx[23].nic.mac 	harqErrorRate_1st_D2D:mean 	-nan
attr source  harqErrorRate_1st_D2D
attr title  "Harq Error Rate D2D, mean"
attr unit  ""
scalar CAIN.ueD2DTx[23].nic.mac 	harqErrorRate_1st_Dl:mean 	-nan
attr source  harqErrorRate_1st_Dl
attr title  "Harq Error Rate Dl, mean"
attr unit  ""
scalar CAIN.ueD2DTx[23].nic.mac 	harqErrorRate_1st_Ul:mean 	-nan
attr source  harqErrorRate_1st_Ul
attr title  "Harq Error Rate Dl, mean"
attr unit  ""
scalar CAIN.ueD2DTx[23].nic.mac 	harqErrorRateD2D:mean 	-nan
attr source  harqErrorRateD2D
attr title  "Harq Error Rate D2D, mean"
attr unit  ""
scalar CAIN.ueD2DTx[23].nic.mac 	harqErrorRateDl:mean 	-nan
attr source  harqErrorRateDl
attr title  "Harq Error Rate Dl, mean"
attr unit  ""
scalar CAIN.ueD2DTx[23].nic.mac 	harqErrorRateUl:mean 	-nan
attr source  harqErrorRateUl
attr title  "Harq Error Rate Dl, mean"
attr unit  ""
scalar CAIN.ueD2DTx[23].nic.mac 	macPacketLossD2D:mean 	-nan
attr source  macPacketLossD2D
attr title  "Mac Packet Loss D2D, mean"
attr unit  ""
scalar CAIN.ueD2DTx[23].nic.mac 	macPacketLossDl:mean 	-nan
attr source  macPacketLossDl
attr title  "Mac Packet Loss, mean"
attr unit  ""
scalar CAIN.ueD2DTx[23].nic.mac 	macPacketLossUl:mean 	-nan
attr source  macPacketLossUl
attr title  "Mac Packet Loss, mean"
attr unit  ""
scalar CAIN.ueD2DTx[23].nic.mac 	macCellPacketLossD2D:mean 	-nan
attr source  macCellPacketLossD2D
attr title  "Mac Cell Packet Loss D2D, mean"
attr unit  ""
scalar CAIN.ueD2DTx[23].nic.mac 	macCellPacketLossUl:mean 	-nan
attr source  macCellPacketLossUl
attr title  "Mac Cell Packet Loss, mean"
attr unit  ""
scalar CAIN.ueD2DTx[23].nic.mac 	macCellPacketLossDl:mean 	-nan
attr source  macCellPacketLossDl
attr title  "Mac Cell Packet Loss, mean"
attr unit  ""
scalar CAIN.ueD2DTx[23].nic.mac 	sentPacketToLowerLayer:count 	624
attr interpolationmode  none
attr source  sentPacketToLowerLayer
scalar CAIN.ueD2DTx[23].nic.mac 	sentPacketToLowerLayer:sum(packetBytes) 	0
attr interpolationmode  none
attr source  sentPacketToLowerLayer
scalar CAIN.ueD2DTx[23].nic.mac 	sentPacketToUpperLayer:count 	0
attr interpolationmode  none
attr source  sentPacketToUpperLayer
scalar CAIN.ueD2DTx[23].nic.mac 	sentPacketToUpperLayer:sum(packetBytes) 	0
attr interpolationmode  none
attr source  sentPacketToUpperLayer
scalar CAIN.ueD2DTx[23].nic.mac 	receivedPacketFromLowerLayer:count 	0
attr interpolationmode  none
attr source  receivedPacketFromLowerLayer
scalar CAIN.ueD2DTx[23].nic.mac 	receivedPacketFromLowerLayer:sum(packetBytes) 	0
attr interpolationmode  none
attr source  receivedPacketFromLowerLayer
scalar CAIN.ueD2DTx[23].nic.mac 	receivedPacketFromUpperLayer:count 	2
attr interpolationmode  none
attr source  receivedPacketFromUpperLayer
scalar CAIN.ueD2DTx[23].nic.mac 	receivedPacketFromUpperLayer:sum(packetBytes) 	90
attr interpolationmode  none
attr source  receivedPacketFromUpperLayer
scalar CAIN.ueD2DTx[23].networkLayer.arp 	failedARPResolution:count 	0
attr title  "ARP failed resolutions, count"
scalar CAIN.ueD2DTx[23].networkLayer.arp 	completedARPResolution:count 	0
attr title  "ARP completed resolutions, count"
scalar CAIN.ueD2DTx[23].networkLayer.arp 	initiatedARPResolution:count 	0
attr title  "ARP initiated resolutions, count"
scalar CAIN.ueD2DTx[23].networkLayer.arp 	sentReply:count 	0
attr title  "ARP replies sent, count"
scalar CAIN.ueD2DTx[23].networkLayer.arp 	sentReq:count 	0
attr title  "ARP request sent, count"
scalar CAIN.ueD2DTx[24].tcpApp[0] 	bytesRcvd 	0
scalar CAIN.ueD2DTx[24].tcpApp[0] 	bytesSent 	0
scalar CAIN.ueD2DTx[24].tcpApp[0] 	rcvdPk:count 	0
attr interpolationmode  none
attr source  rcvdPk
attr title  "packets received, count"
scalar CAIN.ueD2DTx[24].tcpApp[0] 	rcvdPk:sum(packetBytes) 	0
attr interpolationmode  none
attr source  rcvdPk
attr title  "packets received, sum(packetBytes)"
statistic CAIN.ueD2DTx[24].tcpApp[0] 	endToEndDelay:histogram
field count 0
field mean -nan
field stddev -nan
field sum 0
field sqrsum 0
field min -nan
field max -nan
attr interpolationmode  none
attr source  messageAge(rcvdPk)
attr title  "end-to-end delay, histogram"
attr unit  s
bin	-INF	0
bin	-0.5	0
bin	-0.46666666666667	0
bin	-0.43333333333333	0
bin	-0.4	0
bin	-0.36666666666667	0
bin	-0.33333333333333	0
bin	-0.3	0
bin	-0.26666666666667	0
bin	-0.23333333333333	0
bin	-0.2	0
bin	-0.16666666666667	0
bin	-0.13333333333333	0
bin	-0.1	0
bin	-0.066666666666667	0
bin	-0.033333333333333	0
bin	0	0
bin	0.033333333333333	0
bin	0.066666666666667	0
bin	0.1	0
bin	0.13333333333333	0
bin	0.16666666666667	0
bin	0.2	0
bin	0.23333333333333	0
bin	0.26666666666667	0
bin	0.3	0
bin	0.33333333333333	0
bin	0.36666666666667	0
bin	0.4	0
bin	0.43333333333333	0
bin	0.46666666666667	0
bin	0.5	0
scalar CAIN.ueD2DTx[24].tcpApp[0] 	sentPk:count 	0
attr interpolationmode  none
attr source  sentPk
attr title  "packets sent, count"
scalar CAIN.ueD2DTx[24].tcpApp[0] 	sentPk:sum(packetBytes) 	0
attr interpolationmode  none
attr source  sentPk
attr title  "packets sent, sum(packetBytes)"
scalar CAIN.ueD2DTx[24].nic.pdcpRrc 	sentPacketToLowerLayer:count 	2
attr interpolationmode  none
attr source  sentPacketToLowerLayer
scalar CAIN.ueD2DTx[24].nic.pdcpRrc 	sentPacketToLowerLayer:sum(packetBytes) 	90
attr interpolationmode  none
attr source  sentPacketToLowerLayer
scalar CAIN.ueD2DTx[24].nic.pdcpRrc 	sentPacketToUpperLayer:count 	0
attr interpolationmode  none
attr source  sentPacketToUpperLayer
scalar CAIN.ueD2DTx[24].nic.pdcpRrc 	sentPacketToUpperLayer:sum(packetBytes) 	0
attr interpolationmode  none
attr source  sentPacketToUpperLayer
scalar CAIN.ueD2DTx[24].nic.pdcpRrc 	receivedPacketFromLowerLayer:count 	0
attr interpolationmode  none
attr source  receivedPacketFromLowerLayer
scalar CAIN.ueD2DTx[24].nic.pdcpRrc 	receivedPacketFromLowerLayer:sum(packetBytes) 	0
attr interpolationmode  none
attr source  receivedPacketFromLowerLayer
scalar CAIN.ueD2DTx[24].nic.pdcpRrc 	receivedPacketFromUpperLayer:count 	2
attr interpolationmode  none
attr source  receivedPacketFromUpperLayer
scalar CAIN.ueD2DTx[24].nic.pdcpRrc 	receivedPacketFromUpperLayer:sum(packetBytes) 	88
attr interpolationmode  none
attr source  receivedPacketFromUpperLayer
scalar CAIN.ueD2DTx[24].nic.rlc.um 	rlcPduPacketLossUl:lteAvg 	0
attr source  rlcPduPacketLossUl
attr title  "rlc Packet Loss, lteAvg"
attr unit  ""
scalar CAIN.ueD2DTx[24].nic.rlc.um 	rlcPacketLossTotal:lteAvg 	0
attr source  rlcPacketLossTotal
attr title  "rlc Packet Loss, lteAvg"
attr unit  ""
scalar CAIN.ueD2DTx[24].nic.rlc.um 	rlcPacketLossUl:lteAvg 	0
attr source  rlcPacketLossUl
attr title  "rlc Packet Loss, lteAvg"
attr unit  ""
scalar CAIN.ueD2DTx[24].nic.rlc.um 	rlcPduThroughputUl:lteRate 	30.254264563888
attr source  rlcPduThroughputUl
attr title  "Throughput at the rlc layer UL, lteRate"
attr unit  Bps
scalar CAIN.ueD2DTx[24].nic.rlc.um 	rlcPduDelayUl:lteAvg 	0.004
attr source  rlcPduDelayUl
attr title  "Delay at the rlc layer UL, lteAvg"
attr unit  s
scalar CAIN.ueD2DTx[24].nic.rlc.um 	rlcThroughputUl:lteRate 	28.966849050531
attr source  rlcThroughputUl
attr title  "Throughput at the rlc layer UL, lteRate"
attr unit  Bps
scalar CAIN.ueD2DTx[24].nic.rlc.um 	rlcDelayUl:lteAvg 	0.008518720814
attr source  rlcDelayUl
attr title  "Delay at the rlc layer UL, lteAvg"
attr unit  s
scalar CAIN.ueD2DTx[24].nic.mac 	racServedDevsSignal:count 	0
attr interpolationmode  none
attr title  "# of devices served on rac arriavall, count"
scalar CAIN.ueD2DTx[24].nic.mac 	racServedDevsSignal:max 	-nan
attr interpolationmode  none
attr title  "# of devices served on rac arriavall, max"
scalar CAIN.ueD2DTx[24].nic.mac 	racServedDevsSignal:last 	-nan
attr interpolationmode  none
attr title  "# of devices served on rac arriavall, last"
scalar CAIN.ueD2DTx[24].nic.mac 	racDistanceSignal:count 	0
attr interpolationmode  none
attr title  "Rac distance to enb, count"
scalar CAIN.ueD2DTx[24].nic.mac 	racpkt:count 	0
attr interpolationmode  none
attr title  "eNB received racpkt message, count"
scalar CAIN.ueD2DTx[24].nic.mac 	TotalServedDevs:count 	0
attr interpolationmode  none
attr title  "# of total devices served, count"
scalar CAIN.ueD2DTx[24].nic.mac 	TotalServedDevs:max 	-nan
attr interpolationmode  none
attr title  "# of total devices served, max"
scalar CAIN.ueD2DTx[24].nic.mac 	TotalServedDevs:last 	-nan
attr interpolationmode  none
attr title  "# of total devices served, last"
scalar CAIN.ueD2DTx[24].nic.mac 	ServedHopDevs:count 	0
attr interpolationmode  none
attr title  "# of devices served on hop forwarding, count"
scalar CAIN.ueD2DTx[24].nic.mac 	ServedHopDevs:max 	-nan
attr interpolationmode  none
attr title  "# of devices served on hop forwarding, max"
scalar CAIN.ueD2DTx[24].nic.mac 	ServedHopDevs:last 	-nan
attr interpolationmode  none
attr title  "# of devices served on hop forwarding, last"
scalar CAIN.ueD2DTx[24].nic.mac 	ServedDevs:count 	0
attr interpolationmode  none
attr title  "# of devices served on cain forwarding, count"
scalar CAIN.ueD2DTx[24].nic.mac 	ServedDevs:max 	-nan
attr interpolationmode  none
attr title  "# of devices served on cain forwarding, max"
scalar CAIN.ueD2DTx[24].nic.mac 	ServedDevs:last 	-nan
attr interpolationmode  none
attr title  "# of devices served on cain forwarding, last"
scalar CAIN.ueD2DTx[24].nic.mac 	HopDistanceSignal:count 	0
attr interpolationmode  none
attr title  "Distance to enb with hop forwarding, count"
scalar CAIN.ueD2DTx[24].nic.mac 	DistanceSignal:count 	0
attr interpolationmode  none
attr title  "Distance to enb, count"
scalar CAIN.ueD2DTx[24].nic.mac 	CainHopMessageSent:count 	0
attr interpolationmode  none
attr title  "# of Sent CAIN hop message, count"
scalar CAIN.ueD2DTx[24].nic.mac 	CainMessageSent:count 	0
attr interpolationmode  none
attr title  "# of Sent CAIN message, count"
scalar CAIN.ueD2DTx[24].nic.mac 	DropedHopMessage:count 	0
attr interpolationmode  none
attr title  "Droped Hop CAIN message due to RB not available, count"
scalar CAIN.ueD2DTx[24].nic.mac 	DropedCainMessage:count 	0
attr interpolationmode  none
attr title  "Droped CAIN message due to RB not available, count"
scalar CAIN.ueD2DTx[24].nic.mac 	CainHopMessage:count 	0
attr interpolationmode  none
attr title  "eNB received CAIN hop message, count"
scalar CAIN.ueD2DTx[24].nic.mac 	CainMessage:count 	0
attr interpolationmode  none
attr title  "eNB received CAIN message, count"
scalar CAIN.ueD2DTx[24].nic.mac 	measuredItbs:mean 	-nan
attr source  measuredItbs
attr title  "TBS index, mean"
attr unit  ""
scalar CAIN.ueD2DTx[24].nic.mac 	harqErrorRate_4th_D2D:mean 	-nan
attr source  harqErrorRate_4th_D2D
attr title  "Harq Error Rate D2D, mean"
attr unit  ""
scalar CAIN.ueD2DTx[24].nic.mac 	harqErrorRate_4th_Dl:mean 	-nan
attr source  harqErrorRate_4th_Dl
attr title  "Harq Error Rate Dl, mean"
attr unit  ""
scalar CAIN.ueD2DTx[24].nic.mac 	harqErrorRate_4th_Ul:mean 	-nan
attr source  harqErrorRate_4th_Ul
attr title  "Harq Error Rate Dl, mean"
attr unit  ""
scalar CAIN.ueD2DTx[24].nic.mac 	harqErrorRate_3rd_D2D:mean 	-nan
attr source  harqErrorRate_3rd_D2D
attr title  "Harq Error Rate D2D, mean"
attr unit  ""
scalar CAIN.ueD2DTx[24].nic.mac 	harqErrorRate_3rd_Dl:mean 	-nan
attr source  harqErrorRate_3rd_Dl
attr title  "Harq Error Rate Dl, mean"
attr unit  ""
scalar CAIN.ueD2DTx[24].nic.mac 	harqErrorRate_3rd_Ul:mean 	-nan
attr source  harqErrorRate_3rd_Ul
attr title  "Harq Error Rate Dl, mean"
attr unit  ""
scalar CAIN.ueD2DTx[24].nic.mac 	harqErrorRate_2nd_D2D:mean 	-nan
attr source  harqErrorRate_2nd_D2D
attr title  "Harq Error Rate D2D, mean"
attr unit  ""
scalar CAIN.ueD2DTx[24].nic.mac 	harqErrorRate_2nd_Dl:mean 	-nan
attr source  harqErrorRate_2nd_Dl
attr title  "Harq Error Rate Dl, mean"
attr unit  ""
scalar CAIN.ueD2DTx[24].nic.mac 	harqErrorRate_2nd_Ul:mean 	-nan
attr source  harqErrorRate_2nd_Ul
attr title  "Harq Error Rate Dl, mean"
attr unit  ""
scalar CAIN.ueD2DTx[24].nic.mac 	harqErrorRate_1st_D2D:mean 	-nan
attr source  harqErrorRate_1st_D2D
attr title  "Harq Error Rate D2D, mean"
attr unit  ""
scalar CAIN.ueD2DTx[24].nic.mac 	harqErrorRate_1st_Dl:mean 	-nan
attr source  harqErrorRate_1st_Dl
attr title  "Harq Error Rate Dl, mean"
attr unit  ""
scalar CAIN.ueD2DTx[24].nic.mac 	harqErrorRate_1st_Ul:mean 	0
attr source  harqErrorRate_1st_Ul
attr title  "Harq Error Rate Dl, mean"
attr unit  ""
scalar CAIN.ueD2DTx[24].nic.mac 	harqErrorRateD2D:mean 	-nan
attr source  harqErrorRateD2D
attr title  "Harq Error Rate D2D, mean"
attr unit  ""
scalar CAIN.ueD2DTx[24].nic.mac 	harqErrorRateDl:mean 	-nan
attr source  harqErrorRateDl
attr title  "Harq Error Rate Dl, mean"
attr unit  ""
scalar CAIN.ueD2DTx[24].nic.mac 	harqErrorRateUl:mean 	0
attr source  harqErrorRateUl
attr title  "Harq Error Rate Dl, mean"
attr unit  ""
scalar CAIN.ueD2DTx[24].nic.mac 	macPacketLossD2D:mean 	-nan
attr source  macPacketLossD2D
attr title  "Mac Packet Loss D2D, mean"
attr unit  ""
scalar CAIN.ueD2DTx[24].nic.mac 	macPacketLossDl:mean 	-nan
attr source  macPacketLossDl
attr title  "Mac Packet Loss, mean"
attr unit  ""
scalar CAIN.ueD2DTx[24].nic.mac 	macPacketLossUl:mean 	0
attr source  macPacketLossUl
attr title  "Mac Packet Loss, mean"
attr unit  ""
scalar CAIN.ueD2DTx[24].nic.mac 	macCellPacketLossD2D:mean 	-nan
attr source  macCellPacketLossD2D
attr title  "Mac Cell Packet Loss D2D, mean"
attr unit  ""
scalar CAIN.ueD2DTx[24].nic.mac 	macCellPacketLossUl:mean 	-nan
attr source  macCellPacketLossUl
attr title  "Mac Cell Packet Loss, mean"
attr unit  ""
scalar CAIN.ueD2DTx[24].nic.mac 	macCellPacketLossDl:mean 	-nan
attr source  macCellPacketLossDl
attr title  "Mac Cell Packet Loss, mean"
attr unit  ""
scalar CAIN.ueD2DTx[24].nic.mac 	sentPacketToLowerLayer:count 	4
attr interpolationmode  none
attr source  sentPacketToLowerLayer
scalar CAIN.ueD2DTx[24].nic.mac 	sentPacketToLowerLayer:sum(packetBytes) 	0
attr interpolationmode  none
attr source  sentPacketToLowerLayer
scalar CAIN.ueD2DTx[24].nic.mac 	sentPacketToUpperLayer:count 	2
attr interpolationmode  none
attr source  sentPacketToUpperLayer
scalar CAIN.ueD2DTx[24].nic.mac 	sentPacketToUpperLayer:sum(packetBytes) 	0
attr interpolationmode  none
attr source  sentPacketToUpperLayer
scalar CAIN.ueD2DTx[24].nic.mac 	receivedPacketFromLowerLayer:count 	8
attr interpolationmode  none
attr source  receivedPacketFromLowerLayer
scalar CAIN.ueD2DTx[24].nic.mac 	receivedPacketFromLowerLayer:sum(packetBytes) 	0
attr interpolationmode  none
attr source  receivedPacketFromLowerLayer
scalar CAIN.ueD2DTx[24].nic.mac 	receivedPacketFromUpperLayer:count 	4
attr interpolationmode  none
attr source  receivedPacketFromUpperLayer
scalar CAIN.ueD2DTx[24].nic.mac 	receivedPacketFromUpperLayer:sum(packetBytes) 	184
attr interpolationmode  none
attr source  receivedPacketFromUpperLayer
scalar CAIN.ueD2DTx[24].networkLayer.arp 	failedARPResolution:count 	0
attr title  "ARP failed resolutions, count"
scalar CAIN.ueD2DTx[24].networkLayer.arp 	completedARPResolution:count 	0
attr title  "ARP completed resolutions, count"
scalar CAIN.ueD2DTx[24].networkLayer.arp 	initiatedARPResolution:count 	0
attr title  "ARP initiated resolutions, count"
scalar CAIN.ueD2DTx[24].networkLayer.arp 	sentReply:count 	0
attr title  "ARP replies sent, count"
scalar CAIN.ueD2DTx[24].networkLayer.arp 	sentReq:count 	0
attr title  "ARP request sent, count"
