version 2
run CAIN-34-20200508-17:08:09-16280
attr configname CAIN
attr datetime 20200508-17:08:09
attr dist 200
attr experiment CAIN
attr inifile omnetpp.ini
attr iterationvars "$numUe=25, $pwr=-50, $dist=200, $mob=\"./movements/RWP-0.0.movements\""
attr iterationvars2 "$numUe=25, $pwr=-50, $dist=200, $mob=\"./movements/RWP-0.0.movements\", $repetition=4"
attr measurement "$numUe=25, $pwr=-50, $dist=200, $mob=\"./movements/RWP-0.0.movements\""
attr mob "\"./movements/RWP-0.0.movements\""
attr network lte.simulations.networks.CAIN
attr numUe 25
attr processid 16280
attr pwr -50
attr repetition 4
attr replication #4
attr resultdir results
attr runnumber 34
attr seedset 4
param **.**.amcMode "\"AUTO\""
param **.amcMode "\"D2D\""
param **.cainNetwork true
param **.channelControl.alpha 1.0
param **.channelControl.carrierFrequency 2100e+6Hz
param **.channelControl.pMax 10W
param **.d2dCqi 7
param **.deployer.numRbDl 50
param **.deployer.numRbUl 50
param **.distThresh ${dist=200}
param **.fbDelay 1
param **.feedbackComputation "xmldoc(\"config_channel.xml\")"
param **.mobility.constraintAreaMaxX 1000m
param **.mobility.constraintAreaMaxY 1000m
param **.mobility.constraintAreaMaxZ 0m
param **.mobility.constraintAreaMinX 0m
param **.mobility.constraintAreaMinY 0m
param **.mobility.constraintAreaMinZ 0m
param **.nic.phy.channelModel "xmldoc(\"config_channel.xml\")"
param **.numBands 50
param **.pwrThresh "${pwr= -50}"
param **.qtdThresh 3
param **.rbAllocationType "\"localized\""
param **.routingRecorder.enabled false
param **.tcpApp[*].tClose -1s
param **.ueD2DTx[*].mobility.changeAngleBy "normal(0deg, 30deg)"
param **.ueD2DTx[*].mobility.changeInterval "normal(5s, 0.1s)"
param **.ueD2DTx[*].mobility.nodeId -1
param **.ueD2DTx[*].mobility.speed "normal(2mps, 0.01mps)"
param **.ueD2DTx[*].mobility.traceFile "${mob=\"./movements/RWP-0.0.movements\",\"./movements/RWP-0.5.movements\",\"./movements/RPGM-0.0.movements\",\"./movements/RPGM-0.5.movements\",\"./movements/RWPRPGM-0.0.movements\",\"./movements/RWPRPGM-0.5.movements\"}"
param **.ueD2DTx[*].mobilityType "\"BonnMotionMobility\""
param **.usePreconfiguredTxParams false
param *.eNodeB*.numX2Apps 1
param *.eNodeB*.x2App[*].server.localPort "5000 + ancestorIndex(1)"
param *.eNodeB.d2dCapable false
param *.eNodeB.mobility.initFromDisplayString false
param *.eNodeB.mobility.initialX 300m
param *.eNodeB.mobility.initialY 300m
param *.eNodeB.nic.phy.enableD2DCqiReporting true
param *.eNodeB.txPower 19952.62315mw
param *.eNodeB.x2App[0].client.connectAddress "\"eNodeB1%x2ppp0\""
param *.eNodeB1.d2dCapable true
param *.eNodeB1.mobility.initFromDisplayString false
param *.eNodeB1.mobility.initialX 700m
param *.eNodeB1.mobility.initialY 300m
param *.eNodeB1.nic.phy.enableD2DCqiReporting true
param *.eNodeB1.txPower 19952.62315mw
param *.eNodeB1.x2App[0].client.connectAddress "\"eNodeB%x2ppp0\""
param *.extCell[*].bandAllocationType "\"FULL_ALLOC\""
param *.extCell[*].bandUtilization 0.5
param *.extCell[*].txDirection "\"ANISOTROPIC\""
param *.extCell[*].txPower 20
param *.extCell[0].position_x 100m
param *.extCell[0].position_y 600m
param *.extCell[0].txAngle 315
param *.extCell[1].position_x 600m
param *.extCell[1].position_y 600m
param *.extCell[1].txAngle 225
param *.numExtCells 2
param *.numUeCell 0
param *.numUeD2DRx 1
param *.numUeD2DTx 1
param *.ue*.macCellId 1
param *.ue*.masterId 1
param *.ue*.mobility.initFromDisplayString false
param *.ue*[0].macCellId 1
param *.ue*[0].masterId 1
param *.ue*[0].mobility.initFromDisplayString false
param *.ueD2D*.numTcpApps 1
param *.ueD2D*[*].d2dCapable true
param *.ueD2D*[0].d2dCapable false
param *.ueD2D*[0].numTcpApps 1
param *.ueD2DRx[0].mobility.initialX 310m
param *.ueD2DRx[0].mobility.initialY 350m
param *.ueD2DRx[0].tcpApp[*].localPort 1000
param *.ueD2DRx[0].tcpApp[*].typename "\"TCPSinkApp\""
param *.ueD2DTx*.nic.d2dPeerAddresses "\"ueD2DTx[1]\""
param *.ueD2DTx*.tcpApp[*].connectAddress "\"ueD2DTx[0]\""
param *.ueD2DTx*.tcpApp[*].localAddress "\"ueD2DTx\""
param *.ueD2DTx*.tcpApp[*].localPort 1000
param *.ueD2DTx*.tcpApp[*].sendBytes 1GiB
param *.ueD2DTx*.tcpApp[*].typename "\"TCPSessionApp\""
param *.ueD2DTx*.tcpApp[0].active true
param *.ueD2DTx*.tcpApp[0].connectPort 1000
param *.ueD2DTx*.tcpApp[0].tOpen uniform(0.010s,0.1s)
param *.ueD2DTx*.tcpApp[0].tSend uniform(0.15s,0.5s)
param *.ueD2DTx[0].mobility.initialX 290m
param *.ueD2DTx[0].mobility.initialY 350m
param *.ueD2DTx[0].tcpApp[*].localPort 1000
param *.ueD2DTx[0].tcpApp[*].sendBytes 1GiB
param *.ueD2DTx[0].tcpApp[*].typename "\"TCPSessionApp\""
param *.ueD2DTx[0].tcpApp[0].active true
param *.ueD2DTx[0].tcpApp[0].connectAddress "\"ueD2DRx[0]\""
param *.ueD2DTx[0].tcpApp[0].connectPort 1000
param *.ueD2DTx[0].tcpApp[0].localAddress "\"ueD2DTx[0]\""
param *.ueD2DTx[0].tcpApp[0].tOpen uniform(0.010s,0.1s)
param *.ueD2DTx[0].tcpApp[0].tSend uniform(0.15s,0.5s)
param *.ueD2DTx[1].mobility.initialX 690m
param *.ueD2DTx[1].mobility.initialY 250m

vector 8  CAIN.server.ppp[0].queue  queueLength:vector  ETV
attr interpolationmode  sample-hold
attr title  "queue length, vector"
vector 9  CAIN.server.ppp[0].ppp  txState:vector  ETV
attr interpolationmode  sample-hold
attr title  "tx state, vector"
vector 24  CAIN.router.ppp[0].queue  queueLength:vector  ETV
attr interpolationmode  sample-hold
attr title  "queue length, vector"
vector 25  CAIN.router.ppp[0].ppp  txState:vector  ETV
attr interpolationmode  sample-hold
attr title  "tx state, vector"
vector 35  CAIN.router.ppp[1].queue  queueLength:vector  ETV
attr interpolationmode  sample-hold
attr title  "queue length, vector"
vector 36  CAIN.router.ppp[1].ppp  txState:vector  ETV
attr interpolationmode  sample-hold
attr title  "tx state, vector"
vector 56  CAIN.pgw.ppp[0].queue  queueLength:vector  ETV
attr interpolationmode  sample-hold
attr title  "queue length, vector"
vector 57  CAIN.pgw.ppp[0].ppp  txState:vector  ETV
attr interpolationmode  sample-hold
attr title  "tx state, vector"
vector 67  CAIN.pgw.ppp[1].queue  queueLength:vector  ETV
attr interpolationmode  sample-hold
attr title  "queue length, vector"
vector 68  CAIN.pgw.ppp[1].ppp  txState:vector  ETV
attr interpolationmode  sample-hold
attr title  "tx state, vector"
vector 78  CAIN.pgw.pppInterface.queue  queueLength:vector  ETV
attr interpolationmode  sample-hold
attr title  "queue length, vector"
vector 79  CAIN.pgw.pppInterface.ppp  txState:vector  ETV
attr interpolationmode  sample-hold
attr title  "tx state, vector"
vector 120  CAIN.eNodeB.pppIf.queue  queueLength:vector  ETV
attr interpolationmode  sample-hold
attr title  "queue length, vector"
vector 121  CAIN.eNodeB.pppIf.ppp  txState:vector  ETV
attr interpolationmode  sample-hold
attr title  "tx state, vector"
vector 131  CAIN.eNodeB.x2ppp[0].queue  queueLength:vector  ETV
attr interpolationmode  sample-hold
attr title  "queue length, vector"
vector 132  CAIN.eNodeB.x2ppp[0].ppp  txState:vector  ETV
attr interpolationmode  sample-hold
attr title  "tx state, vector"
vector 178  CAIN.eNodeB1.pppIf.queue  queueLength:vector  ETV
attr interpolationmode  sample-hold
attr title  "queue length, vector"
vector 179  CAIN.eNodeB1.pppIf.ppp  txState:vector  ETV
attr interpolationmode  sample-hold
attr title  "tx state, vector"
vector 189  CAIN.eNodeB1.x2ppp[0].queue  queueLength:vector  ETV
attr interpolationmode  sample-hold
attr title  "queue length, vector"
vector 190  CAIN.eNodeB1.x2ppp[0].ppp  txState:vector  ETV
attr interpolationmode  sample-hold
attr title  "tx state, vector"
vector 231  CAIN.ueD2DTx[0].nic.phy  servingCell:vector  ETV
attr source  servingCell
attr title  "ID of the serving eNodeB for the UE, vector"
attr unit  ""
vector 263  CAIN.ueD2DTx[1].nic.phy  servingCell:vector  ETV
attr source  servingCell
attr title  "ID of the serving eNodeB for the UE, vector"
attr unit  ""
vector 295  CAIN.ueD2DTx[2].nic.phy  servingCell:vector  ETV
attr source  servingCell
attr title  "ID of the serving eNodeB for the UE, vector"
attr unit  ""
vector 327  CAIN.ueD2DTx[3].nic.phy  servingCell:vector  ETV
attr source  servingCell
attr title  "ID of the serving eNodeB for the UE, vector"
attr unit  ""
vector 359  CAIN.ueD2DTx[4].nic.phy  servingCell:vector  ETV
attr source  servingCell
attr title  "ID of the serving eNodeB for the UE, vector"
attr unit  ""
vector 391  CAIN.ueD2DTx[5].nic.phy  servingCell:vector  ETV
attr source  servingCell
attr title  "ID of the serving eNodeB for the UE, vector"
attr unit  ""
vector 423  CAIN.ueD2DTx[6].nic.phy  servingCell:vector  ETV
attr source  servingCell
attr title  "ID of the serving eNodeB for the UE, vector"
attr unit  ""
vector 455  CAIN.ueD2DTx[7].nic.phy  servingCell:vector  ETV
attr source  servingCell
attr title  "ID of the serving eNodeB for the UE, vector"
attr unit  ""
vector 487  CAIN.ueD2DTx[8].nic.phy  servingCell:vector  ETV
attr source  servingCell
attr title  "ID of the serving eNodeB for the UE, vector"
attr unit  ""
vector 519  CAIN.ueD2DTx[9].nic.phy  servingCell:vector  ETV
attr source  servingCell
attr title  "ID of the serving eNodeB for the UE, vector"
attr unit  ""
vector 551  CAIN.ueD2DTx[10].nic.phy  servingCell:vector  ETV
attr source  servingCell
attr title  "ID of the serving eNodeB for the UE, vector"
attr unit  ""
vector 583  CAIN.ueD2DTx[11].nic.phy  servingCell:vector  ETV
attr source  servingCell
attr title  "ID of the serving eNodeB for the UE, vector"
attr unit  ""
vector 615  CAIN.ueD2DTx[12].nic.phy  servingCell:vector  ETV
attr source  servingCell
attr title  "ID of the serving eNodeB for the UE, vector"
attr unit  ""
vector 647  CAIN.ueD2DTx[13].nic.phy  servingCell:vector  ETV
attr source  servingCell
attr title  "ID of the serving eNodeB for the UE, vector"
attr unit  ""
vector 679  CAIN.ueD2DTx[14].nic.phy  servingCell:vector  ETV
attr source  servingCell
attr title  "ID of the serving eNodeB for the UE, vector"
attr unit  ""
vector 711  CAIN.ueD2DTx[15].nic.phy  servingCell:vector  ETV
attr source  servingCell
attr title  "ID of the serving eNodeB for the UE, vector"
attr unit  ""
vector 743  CAIN.ueD2DTx[16].nic.phy  servingCell:vector  ETV
attr source  servingCell
attr title  "ID of the serving eNodeB for the UE, vector"
attr unit  ""
vector 775  CAIN.ueD2DTx[17].nic.phy  servingCell:vector  ETV
attr source  servingCell
attr title  "ID of the serving eNodeB for the UE, vector"
attr unit  ""
vector 807  CAIN.ueD2DTx[18].nic.phy  servingCell:vector  ETV
attr source  servingCell
attr title  "ID of the serving eNodeB for the UE, vector"
attr unit  ""
vector 839  CAIN.ueD2DTx[19].nic.phy  servingCell:vector  ETV
attr source  servingCell
attr title  "ID of the serving eNodeB for the UE, vector"
attr unit  ""
vector 871  CAIN.ueD2DTx[20].nic.phy  servingCell:vector  ETV
attr source  servingCell
attr title  "ID of the serving eNodeB for the UE, vector"
attr unit  ""
vector 903  CAIN.ueD2DTx[21].nic.phy  servingCell:vector  ETV
attr source  servingCell
attr title  "ID of the serving eNodeB for the UE, vector"
attr unit  ""
vector 935  CAIN.ueD2DTx[22].nic.phy  servingCell:vector  ETV
attr source  servingCell
attr title  "ID of the serving eNodeB for the UE, vector"
attr unit  ""
vector 967  CAIN.ueD2DTx[23].nic.phy  servingCell:vector  ETV
attr source  servingCell
attr title  "ID of the serving eNodeB for the UE, vector"
attr unit  ""
vector 999  CAIN.ueD2DTx[24].nic.phy  servingCell:vector  ETV
attr source  servingCell
attr title  "ID of the serving eNodeB for the UE, vector"
attr unit  ""
vector 1023  CAIN.eNodeB.sctp  "Throughput of Association 3"  ETV
vector 1045  CAIN.eNodeB1.sctp  "Throughput of Association 4"  ETV
vector 1067  CAIN.eNodeB.sctp  "Throughput of Association 1"  ETV
vector 1087  CAIN.eNodeB.sctp  "Fast Recovery State 1:10.0.5.2"  ETV
vector 1116  CAIN.eNodeB1.sctp  "Throughput of Association 2"  ETV
vector 1136  CAIN.eNodeB1.sctp  "Fast Recovery State 2:10.0.5.1"  ETV
vector 128  CAIN.eNodeB.x2ppp[0].queue  rcvdPk:vector(packetBytes)  ETV
attr interpolationmode  none
attr title  "received packets, vector(packetBytes)"
vector 130  CAIN.eNodeB.x2ppp[0].queue  queueingTime:vector  ETV
attr interpolationmode  none
attr title  "queueing time, vector"
vector 186  CAIN.eNodeB1.x2ppp[0].queue  rcvdPk:vector(packetBytes)  ETV
attr interpolationmode  none
attr title  "received packets, vector(packetBytes)"
vector 188  CAIN.eNodeB1.x2ppp[0].queue  queueingTime:vector  ETV
attr interpolationmode  none
attr title  "queueing time, vector"
vector 137  CAIN.eNodeB.x2ppp[0].ppp  rcvdPkFromHL:vector(packetBytes)  ETV
attr interpolationmode  none
attr source  packetReceivedFromUpper
attr title  "packets received from higher layer, vector(packetBytes)"
vector 133  CAIN.eNodeB.x2ppp[0].ppp  txPk:vector(packetBytes)  ETV
attr interpolationmode  none
attr source  packetSentToLower
attr title  "packets transmitted, vector(packetBytes)"
vector 195  CAIN.eNodeB1.x2ppp[0].ppp  rcvdPkFromHL:vector(packetBytes)  ETV
attr interpolationmode  none
attr source  packetReceivedFromUpper
attr title  "packets received from higher layer, vector(packetBytes)"
vector 191  CAIN.eNodeB1.x2ppp[0].ppp  txPk:vector(packetBytes)  ETV
attr interpolationmode  none
attr source  packetSentToLower
attr title  "packets transmitted, vector(packetBytes)"
vector 192  CAIN.eNodeB1.x2ppp[0].ppp  rxPkOk:vector(packetBytes)  ETV
attr interpolationmode  none
attr source  rxPkOk
attr title  "packets received OK, vector(packetBytes)"
vector 196  CAIN.eNodeB1.x2ppp[0].ppp  passedUpPk:vector(packetBytes)  ETV
attr interpolationmode  none
attr source  packetSentToUpper
attr title  "packets passed to higher layer, vector(packetBytes)"
vector 134  CAIN.eNodeB.x2ppp[0].ppp  rxPkOk:vector(packetBytes)  ETV
attr interpolationmode  none
attr source  rxPkOk
attr title  "packets received OK, vector(packetBytes)"
vector 138  CAIN.eNodeB.x2ppp[0].ppp  passedUpPk:vector(packetBytes)  ETV
attr interpolationmode  none
attr source  packetSentToUpper
attr title  "packets passed to higher layer, vector(packetBytes)"
vector 1165  CAIN.eNodeB1.sctp  "Throughput of Association 4"  ETV
vector 1042  CAIN.eNodeB1.sctp  "Peer Rwnd 4"  ETV
vector 1185  CAIN.eNodeB1.sctp  "Fast Recovery State 5:10.0.4.1"  ETV
vector 1212  CAIN.eNodeB1.sctp  "Fast Recovery State 5:10.0.2.2"  ETV
vector 1239  CAIN.eNodeB1.sctp  "Fast Recovery State 5:10.0.5.1"  ETV
vector 1268  CAIN.eNodeB.sctp  "Throughput of Association 3"  ETV
vector 1020  CAIN.eNodeB.sctp  "Peer Rwnd 3"  ETV
vector 1288  CAIN.eNodeB.sctp  "Fast Recovery State 6:10.0.4.2"  ETV
vector 1315  CAIN.eNodeB.sctp  "Fast Recovery State 6:10.0.3.2"  ETV
vector 1342  CAIN.eNodeB.sctp  "Fast Recovery State 6:10.0.5.2"  ETV
vector 1064  CAIN.eNodeB.sctp  "Peer Rwnd 1"  ETV
vector 1369  CAIN.eNodeB.sctp  "Fast Recovery State 1:10.0.4.2"  ETV
vector 1396  CAIN.eNodeB.sctp  "Fast Recovery State 1:10.0.3.2"  ETV
vector 1113  CAIN.eNodeB1.sctp  "Peer Rwnd 2"  ETV
vector 1423  CAIN.eNodeB1.sctp  "Fast Recovery State 2:10.0.4.1"  ETV
vector 1450  CAIN.eNodeB1.sctp  "Fast Recovery State 2:10.0.2.2"  ETV
vector 1195  CAIN.eNodeB1.sctp  "Slow Start Threshold 5:10.0.2.2"  ETV
vector 1196  CAIN.eNodeB1.sctp  "Congestion Window 5:10.0.2.2"  ETV
vector 1197  CAIN.eNodeB1.sctp  "Bandwidth 5:10.0.2.2"  ETV
vector 1200  CAIN.eNodeB1.sctp  "HB Sent 5:10.0.2.2"  ETV
vector 1193  CAIN.eNodeB1.sctp  "RTO 5:10.0.2.2"  ETV
vector 1168  CAIN.eNodeB1.sctp  "Slow Start Threshold 5:10.0.4.1"  ETV
vector 1169  CAIN.eNodeB1.sctp  "Congestion Window 5:10.0.4.1"  ETV
vector 1170  CAIN.eNodeB1.sctp  "Bandwidth 5:10.0.4.1"  ETV
vector 1173  CAIN.eNodeB1.sctp  "HB Sent 5:10.0.4.1"  ETV
vector 1166  CAIN.eNodeB1.sctp  "RTO 5:10.0.4.1"  ETV
vector 1222  CAIN.eNodeB1.sctp  "Slow Start Threshold 5:10.0.5.1"  ETV
vector 1223  CAIN.eNodeB1.sctp  "Congestion Window 5:10.0.5.1"  ETV
vector 1224  CAIN.eNodeB1.sctp  "Bandwidth 5:10.0.5.1"  ETV
vector 1220  CAIN.eNodeB1.sctp  "RTO 5:10.0.5.1"  ETV
vector 1298  CAIN.eNodeB.sctp  "Slow Start Threshold 6:10.0.3.2"  ETV
vector 1299  CAIN.eNodeB.sctp  "Congestion Window 6:10.0.3.2"  ETV
vector 1300  CAIN.eNodeB.sctp  "Bandwidth 6:10.0.3.2"  ETV
vector 1303  CAIN.eNodeB.sctp  "HB Sent 6:10.0.3.2"  ETV
vector 1296  CAIN.eNodeB.sctp  "RTO 6:10.0.3.2"  ETV
vector 1271  CAIN.eNodeB.sctp  "Slow Start Threshold 6:10.0.4.2"  ETV
vector 1272  CAIN.eNodeB.sctp  "Congestion Window 6:10.0.4.2"  ETV
vector 1273  CAIN.eNodeB.sctp  "Bandwidth 6:10.0.4.2"  ETV
vector 1276  CAIN.eNodeB.sctp  "HB Sent 6:10.0.4.2"  ETV
vector 1269  CAIN.eNodeB.sctp  "RTO 6:10.0.4.2"  ETV
vector 1325  CAIN.eNodeB.sctp  "Slow Start Threshold 6:10.0.5.2"  ETV
vector 1326  CAIN.eNodeB.sctp  "Congestion Window 6:10.0.5.2"  ETV
vector 1327  CAIN.eNodeB.sctp  "Bandwidth 6:10.0.5.2"  ETV
vector 1323  CAIN.eNodeB.sctp  "RTO 6:10.0.5.2"  ETV
vector 1076  CAIN.eNodeB.sctp  "HB ACK Sent 1:10.0.5.2"  ETV
vector 1077  CAIN.eNodeB.sctp  "HB Received 1:10.0.5.2"  ETV
vector 1125  CAIN.eNodeB1.sctp  "HB ACK Sent 2:10.0.5.1"  ETV
vector 1126  CAIN.eNodeB1.sctp  "HB Received 2:10.0.5.1"  ETV
vector 1379  CAIN.eNodeB.sctp  "Slow Start Threshold 1:10.0.3.2"  ETV
vector 1380  CAIN.eNodeB.sctp  "Congestion Window 1:10.0.3.2"  ETV
vector 1381  CAIN.eNodeB.sctp  "Bandwidth 1:10.0.3.2"  ETV
vector 1384  CAIN.eNodeB.sctp  "HB Sent 1:10.0.3.2"  ETV
vector 1377  CAIN.eNodeB.sctp  "RTO 1:10.0.3.2"  ETV
vector 1352  CAIN.eNodeB.sctp  "Slow Start Threshold 1:10.0.4.2"  ETV
vector 1353  CAIN.eNodeB.sctp  "Congestion Window 1:10.0.4.2"  ETV
vector 1354  CAIN.eNodeB.sctp  "Bandwidth 1:10.0.4.2"  ETV
vector 1357  CAIN.eNodeB.sctp  "HB Sent 1:10.0.4.2"  ETV
vector 1350  CAIN.eNodeB.sctp  "RTO 1:10.0.4.2"  ETV
vector 1070  CAIN.eNodeB.sctp  "Slow Start Threshold 1:10.0.5.2"  ETV
vector 1071  CAIN.eNodeB.sctp  "Congestion Window 1:10.0.5.2"  ETV
vector 1072  CAIN.eNodeB.sctp  "Bandwidth 1:10.0.5.2"  ETV
vector 1068  CAIN.eNodeB.sctp  "RTO 1:10.0.5.2"  ETV
vector 1433  CAIN.eNodeB1.sctp  "Slow Start Threshold 2:10.0.2.2"  ETV
vector 1434  CAIN.eNodeB1.sctp  "Congestion Window 2:10.0.2.2"  ETV
vector 1435  CAIN.eNodeB1.sctp  "Bandwidth 2:10.0.2.2"  ETV
vector 1438  CAIN.eNodeB1.sctp  "HB Sent 2:10.0.2.2"  ETV
vector 1431  CAIN.eNodeB1.sctp  "RTO 2:10.0.2.2"  ETV
vector 1406  CAIN.eNodeB1.sctp  "Slow Start Threshold 2:10.0.4.1"  ETV
vector 1407  CAIN.eNodeB1.sctp  "Congestion Window 2:10.0.4.1"  ETV
vector 1408  CAIN.eNodeB1.sctp  "Bandwidth 2:10.0.4.1"  ETV
vector 1411  CAIN.eNodeB1.sctp  "HB Sent 2:10.0.4.1"  ETV
vector 1404  CAIN.eNodeB1.sctp  "RTO 2:10.0.4.1"  ETV
vector 1119  CAIN.eNodeB1.sctp  "Slow Start Threshold 2:10.0.5.1"  ETV
vector 1120  CAIN.eNodeB1.sctp  "Congestion Window 2:10.0.5.1"  ETV
vector 1121  CAIN.eNodeB1.sctp  "Bandwidth 2:10.0.5.1"  ETV
vector 1117  CAIN.eNodeB1.sctp  "RTO 2:10.0.5.1"  ETV
vector 1333  CAIN.eNodeB.sctp  "HB ACK Received 6:10.0.5.2"  ETV
vector 1324  CAIN.eNodeB.sctp  "RTT 6:10.0.5.2"  ETV
vector 1230  CAIN.eNodeB1.sctp  "HB ACK Received 5:10.0.5.1"  ETV
vector 1221  CAIN.eNodeB1.sctp  "RTT 5:10.0.5.1"  ETV
vector 1331  CAIN.eNodeB.sctp  "HB ACK Sent 6:10.0.5.2"  ETV
vector 1332  CAIN.eNodeB.sctp  "HB Received 6:10.0.5.2"  ETV
vector 1228  CAIN.eNodeB1.sctp  "HB ACK Sent 5:10.0.5.1"  ETV
vector 1229  CAIN.eNodeB1.sctp  "HB Received 5:10.0.5.1"  ETV
vector 1127  CAIN.eNodeB1.sctp  "HB ACK Received 2:10.0.5.1"  ETV
vector 1118  CAIN.eNodeB1.sctp  "RTT 2:10.0.5.1"  ETV
vector 1078  CAIN.eNodeB.sctp  "HB ACK Received 1:10.0.5.2"  ETV
vector 1069  CAIN.eNodeB.sctp  "RTT 1:10.0.5.2"  ETV
vector 96  CAIN.eNodeB.nic.mac  receivedPacketFromLowerLayer:vector(packetBytes)  ETV
attr interpolationmode  none
attr source  receivedPacketFromLowerLayer
vector 1465  CAIN.eNodeB.sctp  "SendQueue of Association 6"  ETV
vector 1328  CAIN.eNodeB.sctp  "TSN Sent 6:10.0.5.2"  ETV
vector 1335  CAIN.eNodeB.sctp  "Outstanding Bytes 6:10.0.5.2"  ETV
vector 1008  CAIN.eNodeB.sctp  "Outstanding Bytes 3:Total"  ETV
vector 1334  CAIN.eNodeB.sctp  "Queued Sent Bytes 6:10.0.5.2"  ETV
vector 1007  CAIN.eNodeB.sctp  "Queued Sent Bytes 3:Total"  ETV
vector 1123  CAIN.eNodeB1.sctp  "TSN Received 2:10.0.5.1"  ETV
vector 1099  CAIN.eNodeB1.sctp  "Queued Received Bytes 2:Total"  ETV
vector 1095  CAIN.eNodeB1.sctp  "Advertised Receiver Window 2"  ETV
vector 1104  CAIN.eNodeB1.sctp  "Number of Total Gap Blocks Stored 2"  ETV
vector 1105  CAIN.eNodeB1.sctp  "Number of Revokable Gap Blocks Stored 2"  ETV
vector 1106  CAIN.eNodeB1.sctp  "Number of Non-Revokable Gap Blocks Stored 2"  ETV
vector 1107  CAIN.eNodeB1.sctp  "Number of Duplicate TSNs Stored 2"  ETV
vector 1111  CAIN.eNodeB1.sctp  "Length of SACK Sent 2"  ETV
vector 1108  CAIN.eNodeB1.sctp  "Number of Revokable Gap Blocks Sent 2"  ETV
vector 1109  CAIN.eNodeB1.sctp  "Number of Non-Revokable Gap Blocks Sent 2"  ETV
vector 1110  CAIN.eNodeB1.sctp  "Number of Duplicate TSNs Sent 2"  ETV
vector 1115  CAIN.eNodeB1.sctp  "End to End Delay of Association 2"  ETV
vector 199  CAIN.eNodeB1.x2App[0].client  rcvdPk:vector(packetBytes)  ETV
attr interpolationmode  none
attr source  rcvdPk
attr title  "packets received, vector(packetBytes)"
vector 1464  CAIN.eNodeB.sctp  "Number of Gap Blocks in Last SACK of Association 6"  ETV
vector 1009  CAIN.eNodeB.sctp  "Number of Revokable Gap Blocks in SACK 3"  ETV
vector 1010  CAIN.eNodeB.sctp  "Number of Non-Revokable Gap Blocks in SACK 3"  ETV
vector 1345  CAIN.eNodeB.sctp  "TSN Acked CumAck 6:10.0.5.2"  ETV
vector 1311  CAIN.eNodeB.sctp  "Number of Gap Acked Chunks in Last SACK 6:10.0.3.2"  ETV
vector 1312  CAIN.eNodeB.sctp  "Number of Non-Revokable Gap Acked Chunks in Last SACK 6:10.0.3.2"  ETV
vector 1313  CAIN.eNodeB.sctp  "Number of Gap Missed Chunks in Last SACK 6:10.0.3.2"  ETV
vector 1284  CAIN.eNodeB.sctp  "Number of Gap Acked Chunks in Last SACK 6:10.0.4.2"  ETV
vector 1285  CAIN.eNodeB.sctp  "Number of Non-Revokable Gap Acked Chunks in Last SACK 6:10.0.4.2"  ETV
vector 1286  CAIN.eNodeB.sctp  "Number of Gap Missed Chunks in Last SACK 6:10.0.4.2"  ETV
vector 1338  CAIN.eNodeB.sctp  "Number of Gap Acked Chunks in Last SACK 6:10.0.5.2"  ETV
vector 1339  CAIN.eNodeB.sctp  "Number of Non-Revokable Gap Acked Chunks in Last SACK 6:10.0.5.2"  ETV
vector 1340  CAIN.eNodeB.sctp  "Number of Gap Missed Chunks in Last SACK 6:10.0.5.2"  ETV
vector 1019  CAIN.eNodeB.sctp  "Arwnd in Last SACK 3"  ETV
vector 1347  CAIN.eNodeB.sctp  "TSN PseudoCumAck 6:10.0.5.2"  ETV
vector 1348  CAIN.eNodeB.sctp  "TSN RTXPseudoCumAck 6:10.0.5.2"  ETV
vector 1341  CAIN.eNodeB.sctp  "Partial Bytes Acked 6:10.0.5.2"  ETV
vector 1493  CAIN.ueD2DTx[16].tcp  tcpRcvQueueBytes  ETV
vector 1480  CAIN.ueD2DTx[16].tcp  "advertised window"  ETV
vector 1479  CAIN.ueD2DTx[16].tcp  "receive window"  ETV
vector 1482  CAIN.ueD2DTx[16].tcp  "sent ack"  ETV
vector 717  CAIN.ueD2DTx[16].nic.pdcpRrc  receivedPacketFromUpperLayer:vector(packetBytes)  ETV
attr interpolationmode  none
attr source  receivedPacketFromUpperLayer
vector 720  CAIN.ueD2DTx[16].nic.pdcpRrc  sentPacketToLowerLayer:vector(packetBytes)  ETV
attr interpolationmode  none
attr source  sentPacketToLowerLayer
vector 721  CAIN.ueD2DTx[16].nic.mac  receivedPacketFromUpperLayer:vector(packetBytes)  ETV
attr interpolationmode  none
attr source  receivedPacketFromUpperLayer
vector 724  CAIN.ueD2DTx[16].nic.mac  sentPacketToLowerLayer:vector(packetBytes)  ETV
attr interpolationmode  none
attr source  sentPacketToLowerLayer
vector 111  CAIN.eNodeB.nic.mac  racpkt:vector  ETV
attr interpolationmode  none
attr title  "eNB received racpkt message, vector"
vector 112  CAIN.eNodeB.nic.mac  racDistanceSignal:vector  ETV
attr interpolationmode  none
attr title  "Rac distance to enb, vector"
vector 113  CAIN.eNodeB.nic.mac  racServedDevsSignal:vector  ETV
attr interpolationmode  none
attr title  "# of devices served on rac arriavall, vector"
vector 98  CAIN.eNodeB.nic.mac  sentPacketToLowerLayer:vector(packetBytes)  ETV
attr interpolationmode  none
attr source  sentPacketToLowerLayer
vector 722  CAIN.ueD2DTx[16].nic.mac  receivedPacketFromLowerLayer:vector(packetBytes)  ETV
attr interpolationmode  none
attr source  receivedPacketFromLowerLayer
vector 723  CAIN.ueD2DTx[16].nic.mac  sentPacketToUpperLayer:vector(packetBytes)  ETV
attr interpolationmode  none
attr source  sentPacketToUpperLayer
vector 115  CAIN.eNodeB.nic.phy  averageCqiUlvect:vector  ETV
attr source  averageCqiUlvect
attr title  "Average Cqi reported in UL, vector"
attr unit  cqi
vector 99  CAIN.eNodeB.nic.mac  measuredItbs:vector  ETV
attr source  measuredItbs
attr title  "TBS index, vector"
attr unit  ""
vector 1517  CAIN.ueD2DTx[21].tcp  tcpRcvQueueBytes  ETV
vector 1504  CAIN.ueD2DTx[21].tcp  "advertised window"  ETV
vector 1503  CAIN.ueD2DTx[21].tcp  "receive window"  ETV
vector 1506  CAIN.ueD2DTx[21].tcp  "sent ack"  ETV
vector 877  CAIN.ueD2DTx[21].nic.pdcpRrc  receivedPacketFromUpperLayer:vector(packetBytes)  ETV
attr interpolationmode  none
attr source  receivedPacketFromUpperLayer
vector 880  CAIN.ueD2DTx[21].nic.pdcpRrc  sentPacketToLowerLayer:vector(packetBytes)  ETV
attr interpolationmode  none
attr source  sentPacketToLowerLayer
vector 881  CAIN.ueD2DTx[21].nic.mac  receivedPacketFromUpperLayer:vector(packetBytes)  ETV
attr interpolationmode  none
attr source  receivedPacketFromUpperLayer
vector 891  CAIN.ueD2DTx[21].nic.mac  CainHopMessageSent:vector  ETV
attr interpolationmode  none
attr title  "# of Sent CAIN hop message, vector"
vector 884  CAIN.ueD2DTx[21].nic.mac  sentPacketToLowerLayer:vector(packetBytes)  ETV
attr interpolationmode  none
attr source  sentPacketToLowerLayer
vector 274  CAIN.ueD2DTx[2].nic.mac  receivedPacketFromLowerLayer:vector(packetBytes)  ETV
attr interpolationmode  none
attr source  receivedPacketFromLowerLayer
vector 276  CAIN.ueD2DTx[2].nic.mac  sentPacketToLowerLayer:vector(packetBytes)  ETV
attr interpolationmode  none
attr source  sentPacketToLowerLayer
vector 338  CAIN.ueD2DTx[4].nic.mac  receivedPacketFromLowerLayer:vector(packetBytes)  ETV
attr interpolationmode  none
attr source  receivedPacketFromLowerLayer
vector 340  CAIN.ueD2DTx[4].nic.mac  sentPacketToLowerLayer:vector(packetBytes)  ETV
attr interpolationmode  none
attr source  sentPacketToLowerLayer
vector 97  CAIN.eNodeB.nic.mac  sentPacketToUpperLayer:vector(packetBytes)  ETV
attr interpolationmode  none
attr source  sentPacketToUpperLayer
vector 92  CAIN.eNodeB.nic.pdcpRrc  receivedPacketFromLowerLayer:vector(packetBytes)  ETV
attr interpolationmode  none
attr source  receivedPacketFromLowerLayer
vector 93  CAIN.eNodeB.nic.pdcpRrc  sentPacketToUpperLayer:vector(packetBytes)  ETV
attr interpolationmode  none
attr source  sentPacketToUpperLayer
vector 86  CAIN.eNodeB.udp  sentPk:vector(packetBytes)  ETV
attr interpolationmode  none
attr source  sentPk
attr title  "packets sent, vector(packetBytes)"
vector 106  CAIN.eNodeB.nic.mac  DistanceSignal:vector  ETV
attr interpolationmode  none
attr title  "Distance to enb, vector"
vector 101  CAIN.eNodeB.nic.mac  CainHopMessage:vector  ETV
attr interpolationmode  none
attr title  "eNB received CAIN hop message, vector"
vector 145  CAIN.eNodeB1.udp  rcvdPk:vector(packetBytes)  ETV
attr interpolationmode  none
attr source  rcvdPk
attr title  "packets received, vector(packetBytes)"
vector 146  CAIN.eNodeB1.udp  passedUpPk:vector(count)  ETV
attr interpolationmode  none
attr title  "packets passed up, vector(count)"
vector 1541  CAIN.ueD2DTx[3].tcp  tcpRcvQueueBytes  ETV
vector 1528  CAIN.ueD2DTx[3].tcp  "advertised window"  ETV
vector 1527  CAIN.ueD2DTx[3].tcp  "receive window"  ETV
vector 1530  CAIN.ueD2DTx[3].tcp  "sent ack"  ETV
vector 301  CAIN.ueD2DTx[3].nic.pdcpRrc  receivedPacketFromUpperLayer:vector(packetBytes)  ETV
attr interpolationmode  none
attr source  receivedPacketFromUpperLayer
vector 304  CAIN.ueD2DTx[3].nic.pdcpRrc  sentPacketToLowerLayer:vector(packetBytes)  ETV
attr interpolationmode  none
attr source  sentPacketToLowerLayer
vector 305  CAIN.ueD2DTx[3].nic.mac  receivedPacketFromUpperLayer:vector(packetBytes)  ETV
attr interpolationmode  none
attr source  receivedPacketFromUpperLayer
vector 315  CAIN.ueD2DTx[3].nic.mac  CainHopMessageSent:vector  ETV
attr interpolationmode  none
attr title  "# of Sent CAIN hop message, vector"
vector 308  CAIN.ueD2DTx[3].nic.mac  sentPacketToLowerLayer:vector(packetBytes)  ETV
attr interpolationmode  none
attr source  sentPacketToLowerLayer
vector 345  CAIN.ueD2DTx[4].nic.mac  DropedHopMessage:vector  ETV
attr interpolationmode  none
attr title  "Droped Hop CAIN message due to RB not available, vector"
vector 1565  CAIN.ueD2DTx[20].tcp  tcpRcvQueueBytes  ETV
vector 1552  CAIN.ueD2DTx[20].tcp  "advertised window"  ETV
vector 1551  CAIN.ueD2DTx[20].tcp  "receive window"  ETV
vector 1554  CAIN.ueD2DTx[20].tcp  "sent ack"  ETV
vector 845  CAIN.ueD2DTx[20].nic.pdcpRrc  receivedPacketFromUpperLayer:vector(packetBytes)  ETV
attr interpolationmode  none
attr source  receivedPacketFromUpperLayer
vector 848  CAIN.ueD2DTx[20].nic.pdcpRrc  sentPacketToLowerLayer:vector(packetBytes)  ETV
attr interpolationmode  none
attr source  sentPacketToLowerLayer
vector 849  CAIN.ueD2DTx[20].nic.mac  receivedPacketFromUpperLayer:vector(packetBytes)  ETV
attr interpolationmode  none
attr source  receivedPacketFromUpperLayer
vector 859  CAIN.ueD2DTx[20].nic.mac  CainHopMessageSent:vector  ETV
attr interpolationmode  none
attr title  "# of Sent CAIN hop message, vector"
vector 852  CAIN.ueD2DTx[20].nic.mac  sentPacketToLowerLayer:vector(packetBytes)  ETV
attr interpolationmode  none
attr source  sentPacketToLowerLayer
vector 402  CAIN.ueD2DTx[6].nic.mac  receivedPacketFromLowerLayer:vector(packetBytes)  ETV
attr interpolationmode  none
attr source  receivedPacketFromLowerLayer
vector 404  CAIN.ueD2DTx[6].nic.mac  sentPacketToLowerLayer:vector(packetBytes)  ETV
attr interpolationmode  none
attr source  sentPacketToLowerLayer
vector 914  CAIN.ueD2DTx[22].nic.mac  receivedPacketFromLowerLayer:vector(packetBytes)  ETV
attr interpolationmode  none
attr source  receivedPacketFromLowerLayer
vector 916  CAIN.ueD2DTx[22].nic.mac  sentPacketToLowerLayer:vector(packetBytes)  ETV
attr interpolationmode  none
attr source  sentPacketToLowerLayer
vector 921  CAIN.ueD2DTx[22].nic.mac  DropedHopMessage:vector  ETV
attr interpolationmode  none
attr title  "Droped Hop CAIN message due to RB not available, vector"
vector 1589  CAIN.ueD2DTx[7].tcp  tcpRcvQueueBytes  ETV
vector 1576  CAIN.ueD2DTx[7].tcp  "advertised window"  ETV
vector 1575  CAIN.ueD2DTx[7].tcp  "receive window"  ETV
vector 1578  CAIN.ueD2DTx[7].tcp  "sent ack"  ETV
vector 429  CAIN.ueD2DTx[7].nic.pdcpRrc  receivedPacketFromUpperLayer:vector(packetBytes)  ETV
attr interpolationmode  none
attr source  receivedPacketFromUpperLayer
vector 432  CAIN.ueD2DTx[7].nic.pdcpRrc  sentPacketToLowerLayer:vector(packetBytes)  ETV
attr interpolationmode  none
attr source  sentPacketToLowerLayer
vector 433  CAIN.ueD2DTx[7].nic.mac  receivedPacketFromUpperLayer:vector(packetBytes)  ETV
attr interpolationmode  none
attr source  receivedPacketFromUpperLayer
vector 436  CAIN.ueD2DTx[7].nic.mac  sentPacketToLowerLayer:vector(packetBytes)  ETV
attr interpolationmode  none
attr source  sentPacketToLowerLayer
vector 1613  CAIN.ueD2DTx[18].tcp  tcpRcvQueueBytes  ETV
vector 1600  CAIN.ueD2DTx[18].tcp  "advertised window"  ETV
vector 1599  CAIN.ueD2DTx[18].tcp  "receive window"  ETV
vector 1602  CAIN.ueD2DTx[18].tcp  "sent ack"  ETV
vector 781  CAIN.ueD2DTx[18].nic.pdcpRrc  receivedPacketFromUpperLayer:vector(packetBytes)  ETV
attr interpolationmode  none
attr source  receivedPacketFromUpperLayer
vector 784  CAIN.ueD2DTx[18].nic.pdcpRrc  sentPacketToLowerLayer:vector(packetBytes)  ETV
attr interpolationmode  none
attr source  sentPacketToLowerLayer
vector 785  CAIN.ueD2DTx[18].nic.mac  receivedPacketFromUpperLayer:vector(packetBytes)  ETV
attr interpolationmode  none
attr source  receivedPacketFromUpperLayer
vector 795  CAIN.ueD2DTx[18].nic.mac  CainHopMessageSent:vector  ETV
attr interpolationmode  none
attr title  "# of Sent CAIN hop message, vector"
vector 788  CAIN.ueD2DTx[18].nic.mac  sentPacketToLowerLayer:vector(packetBytes)  ETV
attr interpolationmode  none
attr source  sentPacketToLowerLayer
vector 434  CAIN.ueD2DTx[7].nic.mac  receivedPacketFromLowerLayer:vector(packetBytes)  ETV
attr interpolationmode  none
attr source  receivedPacketFromLowerLayer
vector 435  CAIN.ueD2DTx[7].nic.mac  sentPacketToUpperLayer:vector(packetBytes)  ETV
attr interpolationmode  none
attr source  sentPacketToUpperLayer
vector 1637  CAIN.ueD2DTx[10].tcp  tcpRcvQueueBytes  ETV
vector 1624  CAIN.ueD2DTx[10].tcp  "advertised window"  ETV
vector 1623  CAIN.ueD2DTx[10].tcp  "receive window"  ETV
vector 1626  CAIN.ueD2DTx[10].tcp  "sent ack"  ETV
vector 525  CAIN.ueD2DTx[10].nic.pdcpRrc  receivedPacketFromUpperLayer:vector(packetBytes)  ETV
attr interpolationmode  none
attr source  receivedPacketFromUpperLayer
vector 528  CAIN.ueD2DTx[10].nic.pdcpRrc  sentPacketToLowerLayer:vector(packetBytes)  ETV
attr interpolationmode  none
attr source  sentPacketToLowerLayer
vector 529  CAIN.ueD2DTx[10].nic.mac  receivedPacketFromUpperLayer:vector(packetBytes)  ETV
attr interpolationmode  none
attr source  receivedPacketFromUpperLayer
vector 532  CAIN.ueD2DTx[10].nic.mac  sentPacketToLowerLayer:vector(packetBytes)  ETV
attr interpolationmode  none
attr source  sentPacketToLowerLayer
vector 530  CAIN.ueD2DTx[10].nic.mac  receivedPacketFromLowerLayer:vector(packetBytes)  ETV
attr interpolationmode  none
attr source  receivedPacketFromLowerLayer
vector 531  CAIN.ueD2DTx[10].nic.mac  sentPacketToUpperLayer:vector(packetBytes)  ETV
attr interpolationmode  none
attr source  sentPacketToUpperLayer
vector 1661  CAIN.ueD2DTx[8].tcp  tcpRcvQueueBytes  ETV
vector 1648  CAIN.ueD2DTx[8].tcp  "advertised window"  ETV
vector 1647  CAIN.ueD2DTx[8].tcp  "receive window"  ETV
vector 1650  CAIN.ueD2DTx[8].tcp  "sent ack"  ETV
vector 461  CAIN.ueD2DTx[8].nic.pdcpRrc  receivedPacketFromUpperLayer:vector(packetBytes)  ETV
attr interpolationmode  none
attr source  receivedPacketFromUpperLayer
vector 464  CAIN.ueD2DTx[8].nic.pdcpRrc  sentPacketToLowerLayer:vector(packetBytes)  ETV
attr interpolationmode  none
attr source  sentPacketToLowerLayer
vector 465  CAIN.ueD2DTx[8].nic.mac  receivedPacketFromUpperLayer:vector(packetBytes)  ETV
attr interpolationmode  none
attr source  receivedPacketFromUpperLayer
vector 1685  CAIN.ueD2DTx[9].tcp  tcpRcvQueueBytes  ETV
vector 1672  CAIN.ueD2DTx[9].tcp  "advertised window"  ETV
vector 1671  CAIN.ueD2DTx[9].tcp  "receive window"  ETV
vector 1674  CAIN.ueD2DTx[9].tcp  "sent ack"  ETV
vector 493  CAIN.ueD2DTx[9].nic.pdcpRrc  receivedPacketFromUpperLayer:vector(packetBytes)  ETV
attr interpolationmode  none
attr source  receivedPacketFromUpperLayer
vector 496  CAIN.ueD2DTx[9].nic.pdcpRrc  sentPacketToLowerLayer:vector(packetBytes)  ETV
attr interpolationmode  none
attr source  sentPacketToLowerLayer
vector 497  CAIN.ueD2DTx[9].nic.mac  receivedPacketFromUpperLayer:vector(packetBytes)  ETV
attr interpolationmode  none
attr source  receivedPacketFromUpperLayer
vector 475  CAIN.ueD2DTx[8].nic.mac  CainHopMessageSent:vector  ETV
attr interpolationmode  none
attr title  "# of Sent CAIN hop message, vector"
vector 468  CAIN.ueD2DTx[8].nic.mac  sentPacketToLowerLayer:vector(packetBytes)  ETV
attr interpolationmode  none
attr source  sentPacketToLowerLayer
vector 500  CAIN.ueD2DTx[9].nic.mac  sentPacketToLowerLayer:vector(packetBytes)  ETV
attr interpolationmode  none
attr source  sentPacketToLowerLayer
vector 1709  CAIN.ueD2DTx[14].tcp  tcpRcvQueueBytes  ETV
vector 1696  CAIN.ueD2DTx[14].tcp  "advertised window"  ETV
vector 1695  CAIN.ueD2DTx[14].tcp  "receive window"  ETV
vector 1698  CAIN.ueD2DTx[14].tcp  "sent ack"  ETV
vector 653  CAIN.ueD2DTx[14].nic.pdcpRrc  receivedPacketFromUpperLayer:vector(packetBytes)  ETV
attr interpolationmode  none
attr source  receivedPacketFromUpperLayer
vector 656  CAIN.ueD2DTx[14].nic.pdcpRrc  sentPacketToLowerLayer:vector(packetBytes)  ETV
attr interpolationmode  none
attr source  sentPacketToLowerLayer
vector 657  CAIN.ueD2DTx[14].nic.mac  receivedPacketFromUpperLayer:vector(packetBytes)  ETV
attr interpolationmode  none
attr source  receivedPacketFromUpperLayer
vector 667  CAIN.ueD2DTx[14].nic.mac  CainHopMessageSent:vector  ETV
attr interpolationmode  none
attr title  "# of Sent CAIN hop message, vector"
vector 660  CAIN.ueD2DTx[14].nic.mac  sentPacketToLowerLayer:vector(packetBytes)  ETV
attr interpolationmode  none
attr source  sentPacketToLowerLayer
vector 1733  CAIN.ueD2DTx[22].tcp  tcpRcvQueueBytes  ETV
vector 1720  CAIN.ueD2DTx[22].tcp  "advertised window"  ETV
vector 1719  CAIN.ueD2DTx[22].tcp  "receive window"  ETV
vector 1722  CAIN.ueD2DTx[22].tcp  "sent ack"  ETV
vector 909  CAIN.ueD2DTx[22].nic.pdcpRrc  receivedPacketFromUpperLayer:vector(packetBytes)  ETV
attr interpolationmode  none
attr source  receivedPacketFromUpperLayer
vector 912  CAIN.ueD2DTx[22].nic.pdcpRrc  sentPacketToLowerLayer:vector(packetBytes)  ETV
attr interpolationmode  none
attr source  sentPacketToLowerLayer
vector 913  CAIN.ueD2DTx[22].nic.mac  receivedPacketFromUpperLayer:vector(packetBytes)  ETV
attr interpolationmode  none
attr source  receivedPacketFromUpperLayer
vector 498  CAIN.ueD2DTx[9].nic.mac  receivedPacketFromLowerLayer:vector(packetBytes)  ETV
attr interpolationmode  none
attr source  receivedPacketFromLowerLayer
vector 499  CAIN.ueD2DTx[9].nic.mac  sentPacketToUpperLayer:vector(packetBytes)  ETV
attr interpolationmode  none
attr source  sentPacketToUpperLayer
vector 915  CAIN.ueD2DTx[22].nic.mac  sentPacketToUpperLayer:vector(packetBytes)  ETV
attr interpolationmode  none
attr source  sentPacketToUpperLayer
vector 109  CAIN.eNodeB.nic.mac  ServedHopDevs:vector  ETV
attr interpolationmode  none
attr title  "# of devices served on hop forwarding, vector"
vector 818  CAIN.ueD2DTx[19].nic.mac  receivedPacketFromLowerLayer:vector(packetBytes)  ETV
attr interpolationmode  none
attr source  receivedPacketFromLowerLayer
vector 820  CAIN.ueD2DTx[19].nic.mac  sentPacketToLowerLayer:vector(packetBytes)  ETV
attr interpolationmode  none
attr source  sentPacketToLowerLayer
vector 149  CAIN.eNodeB1.nic.pdcpRrc  receivedPacketFromUpperLayer:vector(packetBytes)  ETV
attr interpolationmode  none
attr source  receivedPacketFromUpperLayer
vector 152  CAIN.eNodeB1.nic.pdcpRrc  sentPacketToLowerLayer:vector(packetBytes)  ETV
attr interpolationmode  none
attr source  sentPacketToLowerLayer
vector 1461  CAIN.eNodeB1.sctp  "SendQueue of Association 5"  ETV
vector 1225  CAIN.eNodeB1.sctp  "TSN Sent 5:10.0.5.1"  ETV
vector 1232  CAIN.eNodeB1.sctp  "Outstanding Bytes 5:10.0.5.1"  ETV
vector 1030  CAIN.eNodeB1.sctp  "Outstanding Bytes 4:Total"  ETV
vector 1231  CAIN.eNodeB1.sctp  "Queued Sent Bytes 5:10.0.5.1"  ETV
vector 1029  CAIN.eNodeB1.sctp  "Queued Sent Bytes 4:Total"  ETV
vector 153  CAIN.eNodeB1.nic.mac  receivedPacketFromUpperLayer:vector(packetBytes)  ETV
attr interpolationmode  none
attr source  receivedPacketFromUpperLayer
vector 825  CAIN.ueD2DTx[19].nic.mac  DropedHopMessage:vector  ETV
attr interpolationmode  none
attr title  "Droped Hop CAIN message due to RB not available, vector"
vector 1074  CAIN.eNodeB.sctp  "TSN Received 1:10.0.5.2"  ETV
vector 1050  CAIN.eNodeB.sctp  "Queued Received Bytes 1:Total"  ETV
vector 1046  CAIN.eNodeB.sctp  "Advertised Receiver Window 1"  ETV
vector 1055  CAIN.eNodeB.sctp  "Number of Total Gap Blocks Stored 1"  ETV
vector 1056  CAIN.eNodeB.sctp  "Number of Revokable Gap Blocks Stored 1"  ETV
vector 1057  CAIN.eNodeB.sctp  "Number of Non-Revokable Gap Blocks Stored 1"  ETV
vector 1058  CAIN.eNodeB.sctp  "Number of Duplicate TSNs Stored 1"  ETV
vector 1062  CAIN.eNodeB.sctp  "Length of SACK Sent 1"  ETV
vector 1059  CAIN.eNodeB.sctp  "Number of Revokable Gap Blocks Sent 1"  ETV
vector 1060  CAIN.eNodeB.sctp  "Number of Non-Revokable Gap Blocks Sent 1"  ETV
vector 1061  CAIN.eNodeB.sctp  "Number of Duplicate TSNs Sent 1"  ETV
vector 1066  CAIN.eNodeB.sctp  "End to End Delay of Association 1"  ETV
vector 141  CAIN.eNodeB.x2App[0].client  rcvdPk:vector(packetBytes)  ETV
attr interpolationmode  none
attr source  rcvdPk
attr title  "packets received, vector(packetBytes)"
vector 1460  CAIN.eNodeB1.sctp  "Number of Gap Blocks in Last SACK of Association 5"  ETV
vector 1031  CAIN.eNodeB1.sctp  "Number of Revokable Gap Blocks in SACK 4"  ETV
vector 1032  CAIN.eNodeB1.sctp  "Number of Non-Revokable Gap Blocks in SACK 4"  ETV
vector 1242  CAIN.eNodeB1.sctp  "TSN Acked CumAck 5:10.0.5.1"  ETV
vector 1208  CAIN.eNodeB1.sctp  "Number of Gap Acked Chunks in Last SACK 5:10.0.2.2"  ETV
vector 1209  CAIN.eNodeB1.sctp  "Number of Non-Revokable Gap Acked Chunks in Last SACK 5:10.0.2.2"  ETV
vector 1210  CAIN.eNodeB1.sctp  "Number of Gap Missed Chunks in Last SACK 5:10.0.2.2"  ETV
vector 1181  CAIN.eNodeB1.sctp  "Number of Gap Acked Chunks in Last SACK 5:10.0.4.1"  ETV
vector 1182  CAIN.eNodeB1.sctp  "Number of Non-Revokable Gap Acked Chunks in Last SACK 5:10.0.4.1"  ETV
vector 1183  CAIN.eNodeB1.sctp  "Number of Gap Missed Chunks in Last SACK 5:10.0.4.1"  ETV
vector 1235  CAIN.eNodeB1.sctp  "Number of Gap Acked Chunks in Last SACK 5:10.0.5.1"  ETV
vector 1236  CAIN.eNodeB1.sctp  "Number of Non-Revokable Gap Acked Chunks in Last SACK 5:10.0.5.1"  ETV
vector 1237  CAIN.eNodeB1.sctp  "Number of Gap Missed Chunks in Last SACK 5:10.0.5.1"  ETV
vector 1041  CAIN.eNodeB1.sctp  "Arwnd in Last SACK 4"  ETV
vector 1244  CAIN.eNodeB1.sctp  "TSN PseudoCumAck 5:10.0.5.1"  ETV
vector 1245  CAIN.eNodeB1.sctp  "TSN RTXPseudoCumAck 5:10.0.5.1"  ETV
vector 1238  CAIN.eNodeB1.sctp  "Partial Bytes Acked 5:10.0.5.1"  ETV
vector 1757  CAIN.ueD2DTx[4].tcp  tcpRcvQueueBytes  ETV
vector 1744  CAIN.ueD2DTx[4].tcp  "advertised window"  ETV
vector 1743  CAIN.ueD2DTx[4].tcp  "receive window"  ETV
vector 1746  CAIN.ueD2DTx[4].tcp  "sent ack"  ETV
vector 333  CAIN.ueD2DTx[4].nic.pdcpRrc  receivedPacketFromUpperLayer:vector(packetBytes)  ETV
attr interpolationmode  none
attr source  receivedPacketFromUpperLayer
vector 336  CAIN.ueD2DTx[4].nic.pdcpRrc  sentPacketToLowerLayer:vector(packetBytes)  ETV
attr interpolationmode  none
attr source  sentPacketToLowerLayer
vector 337  CAIN.ueD2DTx[4].nic.mac  receivedPacketFromUpperLayer:vector(packetBytes)  ETV
attr interpolationmode  none
attr source  receivedPacketFromUpperLayer
vector 117  CAIN.eNodeB.pppIf.queue  rcvdPk:vector(packetBytes)  ETV
attr interpolationmode  none
attr title  "received packets, vector(packetBytes)"
vector 119  CAIN.eNodeB.pppIf.queue  queueingTime:vector  ETV
attr interpolationmode  none
attr title  "queueing time, vector"
vector 126  CAIN.eNodeB.pppIf.ppp  rcvdPkFromHL:vector(packetBytes)  ETV
attr interpolationmode  none
attr source  packetReceivedFromUpper
attr title  "packets received from higher layer, vector(packetBytes)"
vector 122  CAIN.eNodeB.pppIf.ppp  txPk:vector(packetBytes)  ETV
attr interpolationmode  none
attr source  packetSentToLower
attr title  "packets transmitted, vector(packetBytes)"
vector 59  CAIN.pgw.ppp[0].ppp  rxPkOk:vector(packetBytes)  ETV
attr interpolationmode  none
attr source  rxPkOk
attr title  "packets received OK, vector(packetBytes)"
vector 63  CAIN.pgw.ppp[0].ppp  passedUpPk:vector(packetBytes)  ETV
attr interpolationmode  none
attr source  packetSentToUpper
attr title  "packets passed to higher layer, vector(packetBytes)"
vector 44  CAIN.pgw.udp  rcvdPk:vector(packetBytes)  ETV
attr interpolationmode  none
attr source  rcvdPk
attr title  "packets received, vector(packetBytes)"
vector 45  CAIN.pgw.udp  passedUpPk:vector(count)  ETV
attr interpolationmode  none
attr title  "packets passed up, vector(count)"
vector 43  CAIN.pgw.udp  sentPk:vector(packetBytes)  ETV
attr interpolationmode  none
attr source  sentPk
attr title  "packets sent, vector(packetBytes)"
vector 64  CAIN.pgw.ppp[1].queue  rcvdPk:vector(packetBytes)  ETV
attr interpolationmode  none
attr title  "received packets, vector(packetBytes)"
vector 66  CAIN.pgw.ppp[1].queue  queueingTime:vector  ETV
attr interpolationmode  none
attr title  "queueing time, vector"
vector 73  CAIN.pgw.ppp[1].ppp  rcvdPkFromHL:vector(packetBytes)  ETV
attr interpolationmode  none
attr source  packetReceivedFromUpper
attr title  "packets received from higher layer, vector(packetBytes)"
vector 69  CAIN.pgw.ppp[1].ppp  txPk:vector(packetBytes)  ETV
attr interpolationmode  none
attr source  packetSentToLower
attr title  "packets transmitted, vector(packetBytes)"
vector 181  CAIN.eNodeB1.pppIf.ppp  rxPkOk:vector(packetBytes)  ETV
attr interpolationmode  none
attr source  rxPkOk
attr title  "packets received OK, vector(packetBytes)"
vector 185  CAIN.eNodeB1.pppIf.ppp  passedUpPk:vector(packetBytes)  ETV
attr interpolationmode  none
attr source  packetSentToUpper
attr title  "packets passed to higher layer, vector(packetBytes)"
vector 154  CAIN.eNodeB1.nic.mac  receivedPacketFromLowerLayer:vector(packetBytes)  ETV
attr interpolationmode  none
attr source  receivedPacketFromLowerLayer
vector 169  CAIN.eNodeB1.nic.mac  racpkt:vector  ETV
attr interpolationmode  none
attr title  "eNB received racpkt message, vector"
vector 170  CAIN.eNodeB1.nic.mac  racDistanceSignal:vector  ETV
attr interpolationmode  none
attr title  "Rac distance to enb, vector"
vector 171  CAIN.eNodeB1.nic.mac  racServedDevsSignal:vector  ETV
attr interpolationmode  none
attr title  "# of devices served on rac arriavall, vector"
vector 156  CAIN.eNodeB1.nic.mac  sentPacketToLowerLayer:vector(packetBytes)  ETV
attr interpolationmode  none
attr source  sentPacketToLowerLayer
vector 1781  CAIN.ueD2DTx[6].tcp  tcpRcvQueueBytes  ETV
vector 1768  CAIN.ueD2DTx[6].tcp  "advertised window"  ETV
vector 1767  CAIN.ueD2DTx[6].tcp  "receive window"  ETV
vector 1770  CAIN.ueD2DTx[6].tcp  "sent ack"  ETV
vector 397  CAIN.ueD2DTx[6].nic.pdcpRrc  receivedPacketFromUpperLayer:vector(packetBytes)  ETV
attr interpolationmode  none
attr source  receivedPacketFromUpperLayer
vector 400  CAIN.ueD2DTx[6].nic.pdcpRrc  sentPacketToLowerLayer:vector(packetBytes)  ETV
attr interpolationmode  none
attr source  sentPacketToLowerLayer
vector 401  CAIN.ueD2DTx[6].nic.mac  receivedPacketFromUpperLayer:vector(packetBytes)  ETV
attr interpolationmode  none
attr source  receivedPacketFromUpperLayer
vector 410  CAIN.ueD2DTx[6].nic.mac  CainMessageSent:vector  ETV
attr interpolationmode  none
attr title  "# of Sent CAIN message, vector"
vector 100  CAIN.eNodeB.nic.mac  CainMessage:vector  ETV
attr interpolationmode  none
attr title  "eNB received CAIN message, vector"
vector 1805  CAIN.ueD2DTx[13].tcp  tcpRcvQueueBytes  ETV
vector 1792  CAIN.ueD2DTx[13].tcp  "advertised window"  ETV
vector 1791  CAIN.ueD2DTx[13].tcp  "receive window"  ETV
vector 1794  CAIN.ueD2DTx[13].tcp  "sent ack"  ETV
vector 621  CAIN.ueD2DTx[13].nic.pdcpRrc  receivedPacketFromUpperLayer:vector(packetBytes)  ETV
attr interpolationmode  none
attr source  receivedPacketFromUpperLayer
vector 624  CAIN.ueD2DTx[13].nic.pdcpRrc  sentPacketToLowerLayer:vector(packetBytes)  ETV
attr interpolationmode  none
attr source  sentPacketToLowerLayer
vector 625  CAIN.ueD2DTx[13].nic.mac  receivedPacketFromUpperLayer:vector(packetBytes)  ETV
attr interpolationmode  none
attr source  receivedPacketFromUpperLayer
vector 634  CAIN.ueD2DTx[13].nic.mac  CainMessageSent:vector  ETV
attr interpolationmode  none
attr title  "# of Sent CAIN message, vector"
vector 628  CAIN.ueD2DTx[13].nic.mac  sentPacketToLowerLayer:vector(packetBytes)  ETV
attr interpolationmode  none
attr source  sentPacketToLowerLayer
vector 108  CAIN.eNodeB.nic.mac  ServedDevs:vector  ETV
attr interpolationmode  none
attr title  "# of devices served on cain forwarding, vector"
vector 1829  CAIN.ueD2DTx[11].tcp  tcpRcvQueueBytes  ETV
vector 1816  CAIN.ueD2DTx[11].tcp  "advertised window"  ETV
vector 1815  CAIN.ueD2DTx[11].tcp  "receive window"  ETV
vector 1818  CAIN.ueD2DTx[11].tcp  "sent ack"  ETV
vector 557  CAIN.ueD2DTx[11].nic.pdcpRrc  receivedPacketFromUpperLayer:vector(packetBytes)  ETV
attr interpolationmode  none
attr source  receivedPacketFromUpperLayer
vector 560  CAIN.ueD2DTx[11].nic.pdcpRrc  sentPacketToLowerLayer:vector(packetBytes)  ETV
attr interpolationmode  none
attr source  sentPacketToLowerLayer
vector 561  CAIN.ueD2DTx[11].nic.mac  receivedPacketFromUpperLayer:vector(packetBytes)  ETV
attr interpolationmode  none
attr source  receivedPacketFromUpperLayer
vector 564  CAIN.ueD2DTx[11].nic.mac  sentPacketToLowerLayer:vector(packetBytes)  ETV
attr interpolationmode  none
attr source  sentPacketToLowerLayer
vector 1853  CAIN.ueD2DTx[1].tcp  tcpRcvQueueBytes  ETV
vector 1840  CAIN.ueD2DTx[1].tcp  "advertised window"  ETV
vector 1839  CAIN.ueD2DTx[1].tcp  "receive window"  ETV
vector 1842  CAIN.ueD2DTx[1].tcp  "sent ack"  ETV
vector 237  CAIN.ueD2DTx[1].nic.pdcpRrc  receivedPacketFromUpperLayer:vector(packetBytes)  ETV
attr interpolationmode  none
attr source  receivedPacketFromUpperLayer
vector 240  CAIN.ueD2DTx[1].nic.pdcpRrc  sentPacketToLowerLayer:vector(packetBytes)  ETV
attr interpolationmode  none
attr source  sentPacketToLowerLayer
vector 241  CAIN.ueD2DTx[1].nic.mac  receivedPacketFromUpperLayer:vector(packetBytes)  ETV
attr interpolationmode  none
attr source  receivedPacketFromUpperLayer
vector 244  CAIN.ueD2DTx[1].nic.mac  sentPacketToLowerLayer:vector(packetBytes)  ETV
attr interpolationmode  none
attr source  sentPacketToLowerLayer
vector 562  CAIN.ueD2DTx[11].nic.mac  receivedPacketFromLowerLayer:vector(packetBytes)  ETV
attr interpolationmode  none
attr source  receivedPacketFromLowerLayer
vector 1877  CAIN.ueD2DTx[15].tcp  tcpRcvQueueBytes  ETV
vector 1864  CAIN.ueD2DTx[15].tcp  "advertised window"  ETV
vector 1863  CAIN.ueD2DTx[15].tcp  "receive window"  ETV
vector 1866  CAIN.ueD2DTx[15].tcp  "sent ack"  ETV
vector 685  CAIN.ueD2DTx[15].nic.pdcpRrc  receivedPacketFromUpperLayer:vector(packetBytes)  ETV
attr interpolationmode  none
attr source  receivedPacketFromUpperLayer
vector 688  CAIN.ueD2DTx[15].nic.pdcpRrc  sentPacketToLowerLayer:vector(packetBytes)  ETV
attr interpolationmode  none
attr source  sentPacketToLowerLayer
vector 689  CAIN.ueD2DTx[15].nic.mac  receivedPacketFromUpperLayer:vector(packetBytes)  ETV
attr interpolationmode  none
attr source  receivedPacketFromUpperLayer
vector 692  CAIN.ueD2DTx[15].nic.mac  sentPacketToLowerLayer:vector(packetBytes)  ETV
attr interpolationmode  none
attr source  sentPacketToLowerLayer
vector 563  CAIN.ueD2DTx[11].nic.mac  sentPacketToUpperLayer:vector(packetBytes)  ETV
attr interpolationmode  none
attr source  sentPacketToUpperLayer
vector 242  CAIN.ueD2DTx[1].nic.mac  receivedPacketFromLowerLayer:vector(packetBytes)  ETV
attr interpolationmode  none
attr source  receivedPacketFromLowerLayer
vector 690  CAIN.ueD2DTx[15].nic.mac  receivedPacketFromLowerLayer:vector(packetBytes)  ETV
attr interpolationmode  none
attr source  receivedPacketFromLowerLayer
vector 691  CAIN.ueD2DTx[15].nic.mac  sentPacketToUpperLayer:vector(packetBytes)  ETV
attr interpolationmode  none
attr source  sentPacketToUpperLayer
vector 1901  CAIN.ueD2DTx[5].tcp  tcpRcvQueueBytes  ETV
vector 1888  CAIN.ueD2DTx[5].tcp  "advertised window"  ETV
vector 1887  CAIN.ueD2DTx[5].tcp  "receive window"  ETV
vector 1890  CAIN.ueD2DTx[5].tcp  "sent ack"  ETV
vector 365  CAIN.ueD2DTx[5].nic.pdcpRrc  receivedPacketFromUpperLayer:vector(packetBytes)  ETV
attr interpolationmode  none
attr source  receivedPacketFromUpperLayer
vector 368  CAIN.ueD2DTx[5].nic.pdcpRrc  sentPacketToLowerLayer:vector(packetBytes)  ETV
attr interpolationmode  none
attr source  sentPacketToLowerLayer
vector 369  CAIN.ueD2DTx[5].nic.mac  receivedPacketFromUpperLayer:vector(packetBytes)  ETV
attr interpolationmode  none
attr source  receivedPacketFromUpperLayer
vector 378  CAIN.ueD2DTx[5].nic.mac  CainMessageSent:vector  ETV
attr interpolationmode  none
attr title  "# of Sent CAIN message, vector"
vector 372  CAIN.ueD2DTx[5].nic.mac  sentPacketToLowerLayer:vector(packetBytes)  ETV
attr interpolationmode  none
attr source  sentPacketToLowerLayer
vector 1925  CAIN.ueD2DTx[12].tcp  tcpRcvQueueBytes  ETV
vector 1912  CAIN.ueD2DTx[12].tcp  "advertised window"  ETV
vector 1911  CAIN.ueD2DTx[12].tcp  "receive window"  ETV
vector 1914  CAIN.ueD2DTx[12].tcp  "sent ack"  ETV
vector 589  CAIN.ueD2DTx[12].nic.pdcpRrc  receivedPacketFromUpperLayer:vector(packetBytes)  ETV
attr interpolationmode  none
attr source  receivedPacketFromUpperLayer
vector 592  CAIN.ueD2DTx[12].nic.pdcpRrc  sentPacketToLowerLayer:vector(packetBytes)  ETV
attr interpolationmode  none
attr source  sentPacketToLowerLayer
vector 593  CAIN.ueD2DTx[12].nic.mac  receivedPacketFromUpperLayer:vector(packetBytes)  ETV
attr interpolationmode  none
attr source  receivedPacketFromUpperLayer
vector 1949  CAIN.ueD2DTx[0].tcp  tcpRcvQueueBytes  ETV
vector 1936  CAIN.ueD2DTx[0].tcp  "advertised window"  ETV
vector 1935  CAIN.ueD2DTx[0].tcp  "receive window"  ETV
vector 1938  CAIN.ueD2DTx[0].tcp  "sent ack"  ETV
vector 205  CAIN.ueD2DTx[0].nic.pdcpRrc  receivedPacketFromUpperLayer:vector(packetBytes)  ETV
attr interpolationmode  none
attr source  receivedPacketFromUpperLayer
vector 208  CAIN.ueD2DTx[0].nic.pdcpRrc  sentPacketToLowerLayer:vector(packetBytes)  ETV
attr interpolationmode  none
attr source  sentPacketToLowerLayer
vector 209  CAIN.ueD2DTx[0].nic.mac  receivedPacketFromUpperLayer:vector(packetBytes)  ETV
attr interpolationmode  none
attr source  receivedPacketFromUpperLayer
vector 218  CAIN.ueD2DTx[0].nic.mac  CainMessageSent:vector  ETV
attr interpolationmode  none
attr title  "# of Sent CAIN message, vector"
vector 212  CAIN.ueD2DTx[0].nic.mac  sentPacketToLowerLayer:vector(packetBytes)  ETV
attr interpolationmode  none
attr source  sentPacketToLowerLayer
vector 1973  CAIN.ueD2DTx[17].tcp  tcpRcvQueueBytes  ETV
vector 1960  CAIN.ueD2DTx[17].tcp  "advertised window"  ETV
vector 1959  CAIN.ueD2DTx[17].tcp  "receive window"  ETV
vector 1962  CAIN.ueD2DTx[17].tcp  "sent ack"  ETV
vector 749  CAIN.ueD2DTx[17].nic.pdcpRrc  receivedPacketFromUpperLayer:vector(packetBytes)  ETV
attr interpolationmode  none
attr source  receivedPacketFromUpperLayer
vector 752  CAIN.ueD2DTx[17].nic.pdcpRrc  sentPacketToLowerLayer:vector(packetBytes)  ETV
attr interpolationmode  none
attr source  sentPacketToLowerLayer
vector 753  CAIN.ueD2DTx[17].nic.mac  receivedPacketFromUpperLayer:vector(packetBytes)  ETV
attr interpolationmode  none
attr source  receivedPacketFromUpperLayer
vector 756  CAIN.ueD2DTx[17].nic.mac  sentPacketToLowerLayer:vector(packetBytes)  ETV
attr interpolationmode  none
attr source  sentPacketToLowerLayer
vector 754  CAIN.ueD2DTx[17].nic.mac  receivedPacketFromLowerLayer:vector(packetBytes)  ETV
attr interpolationmode  none
attr source  receivedPacketFromLowerLayer
vector 1997  CAIN.ueD2DTx[23].tcp  tcpRcvQueueBytes  ETV
vector 1984  CAIN.ueD2DTx[23].tcp  "advertised window"  ETV
vector 1983  CAIN.ueD2DTx[23].tcp  "receive window"  ETV
vector 1986  CAIN.ueD2DTx[23].tcp  "sent ack"  ETV
vector 941  CAIN.ueD2DTx[23].nic.pdcpRrc  receivedPacketFromUpperLayer:vector(packetBytes)  ETV
attr interpolationmode  none
attr source  receivedPacketFromUpperLayer
vector 944  CAIN.ueD2DTx[23].nic.pdcpRrc  sentPacketToLowerLayer:vector(packetBytes)  ETV
attr interpolationmode  none
attr source  sentPacketToLowerLayer
vector 945  CAIN.ueD2DTx[23].nic.mac  receivedPacketFromUpperLayer:vector(packetBytes)  ETV
attr interpolationmode  none
attr source  receivedPacketFromUpperLayer
vector 955  CAIN.ueD2DTx[23].nic.mac  CainHopMessageSent:vector  ETV
attr interpolationmode  none
attr title  "# of Sent CAIN hop message, vector"
vector 948  CAIN.ueD2DTx[23].nic.mac  sentPacketToLowerLayer:vector(packetBytes)  ETV
attr interpolationmode  none
attr source  sentPacketToLowerLayer
vector 2021  CAIN.ueD2DTx[2].tcp  tcpRcvQueueBytes  ETV
vector 2008  CAIN.ueD2DTx[2].tcp  "advertised window"  ETV
vector 2007  CAIN.ueD2DTx[2].tcp  "receive window"  ETV
vector 2010  CAIN.ueD2DTx[2].tcp  "sent ack"  ETV
vector 269  CAIN.ueD2DTx[2].nic.pdcpRrc  receivedPacketFromUpperLayer:vector(packetBytes)  ETV
attr interpolationmode  none
attr source  receivedPacketFromUpperLayer
vector 272  CAIN.ueD2DTx[2].nic.pdcpRrc  sentPacketToLowerLayer:vector(packetBytes)  ETV
attr interpolationmode  none
attr source  sentPacketToLowerLayer
vector 273  CAIN.ueD2DTx[2].nic.mac  receivedPacketFromUpperLayer:vector(packetBytes)  ETV
attr interpolationmode  none
attr source  receivedPacketFromUpperLayer
vector 2045  CAIN.ueD2DTx[24].tcp  tcpRcvQueueBytes  ETV
vector 2032  CAIN.ueD2DTx[24].tcp  "advertised window"  ETV
vector 2031  CAIN.ueD2DTx[24].tcp  "receive window"  ETV
vector 2034  CAIN.ueD2DTx[24].tcp  "sent ack"  ETV
vector 973  CAIN.ueD2DTx[24].nic.pdcpRrc  receivedPacketFromUpperLayer:vector(packetBytes)  ETV
attr interpolationmode  none
attr source  receivedPacketFromUpperLayer
vector 976  CAIN.ueD2DTx[24].nic.pdcpRrc  sentPacketToLowerLayer:vector(packetBytes)  ETV
attr interpolationmode  none
attr source  sentPacketToLowerLayer
vector 977  CAIN.ueD2DTx[24].nic.mac  receivedPacketFromUpperLayer:vector(packetBytes)  ETV
attr interpolationmode  none
attr source  receivedPacketFromUpperLayer
vector 980  CAIN.ueD2DTx[24].nic.mac  sentPacketToLowerLayer:vector(packetBytes)  ETV
attr interpolationmode  none
attr source  sentPacketToLowerLayer
vector 978  CAIN.ueD2DTx[24].nic.mac  receivedPacketFromLowerLayer:vector(packetBytes)  ETV
attr interpolationmode  none
attr source  receivedPacketFromLowerLayer
vector 2069  CAIN.ueD2DTx[19].tcp  tcpRcvQueueBytes  ETV
vector 2056  CAIN.ueD2DTx[19].tcp  "advertised window"  ETV
vector 2055  CAIN.ueD2DTx[19].tcp  "receive window"  ETV
vector 2058  CAIN.ueD2DTx[19].tcp  "sent ack"  ETV
vector 813  CAIN.ueD2DTx[19].nic.pdcpRrc  receivedPacketFromUpperLayer:vector(packetBytes)  ETV
attr interpolationmode  none
attr source  receivedPacketFromUpperLayer
vector 816  CAIN.ueD2DTx[19].nic.pdcpRrc  sentPacketToLowerLayer:vector(packetBytes)  ETV
attr interpolationmode  none
attr source  sentPacketToLowerLayer
vector 817  CAIN.ueD2DTx[19].nic.mac  receivedPacketFromUpperLayer:vector(packetBytes)  ETV
attr interpolationmode  none
attr source  receivedPacketFromUpperLayer
vector 979  CAIN.ueD2DTx[24].nic.mac  sentPacketToUpperLayer:vector(packetBytes)  ETV
attr interpolationmode  none
attr source  sentPacketToUpperLayer
vector 819  CAIN.ueD2DTx[19].nic.mac  sentPacketToUpperLayer:vector(packetBytes)  ETV
attr interpolationmode  none
attr source  sentPacketToUpperLayer
vector 157  CAIN.eNodeB1.nic.mac  measuredItbs:vector  ETV
attr source  measuredItbs
attr title  "TBS index, vector"
attr unit  ""
vector 155  CAIN.eNodeB1.nic.mac  sentPacketToUpperLayer:vector(packetBytes)  ETV
attr interpolationmode  none
attr source  sentPacketToUpperLayer
vector 228  CAIN.ueD2DTx[0].nic.phy  averageCqiDlvect:vector  ETV
attr source  averageCqiDlvect
attr title  "Average Cqi reported in DL, vector"
attr unit  cqi
vector 210  CAIN.ueD2DTx[0].nic.mac  receivedPacketFromLowerLayer:vector(packetBytes)  ETV
attr interpolationmode  none
attr source  receivedPacketFromLowerLayer
vector 211  CAIN.ueD2DTx[0].nic.mac  sentPacketToUpperLayer:vector(packetBytes)  ETV
attr interpolationmode  none
attr source  sentPacketToUpperLayer
vector 206  CAIN.ueD2DTx[0].nic.pdcpRrc  receivedPacketFromLowerLayer:vector(packetBytes)  ETV
attr interpolationmode  none
attr source  receivedPacketFromLowerLayer
vector 207  CAIN.ueD2DTx[0].nic.pdcpRrc  sentPacketToUpperLayer:vector(packetBytes)  ETV
attr interpolationmode  none
attr source  sentPacketToUpperLayer
vector 890  CAIN.ueD2DTx[21].nic.mac  CainMessageSent:vector  ETV
attr interpolationmode  none
attr title  "# of Sent CAIN message, vector"
vector 786  CAIN.ueD2DTx[18].nic.mac  receivedPacketFromLowerLayer:vector(packetBytes)  ETV
attr interpolationmode  none
attr source  receivedPacketFromLowerLayer
vector 787  CAIN.ueD2DTx[18].nic.mac  sentPacketToUpperLayer:vector(packetBytes)  ETV
attr interpolationmode  none
attr source  sentPacketToUpperLayer
vector 173  CAIN.eNodeB1.nic.phy  averageCqiUlvect:vector  ETV
attr source  averageCqiUlvect
attr title  "Average Cqi reported in UL, vector"
attr unit  cqi
vector 150  CAIN.eNodeB1.nic.pdcpRrc  receivedPacketFromLowerLayer:vector(packetBytes)  ETV
attr interpolationmode  none
attr source  receivedPacketFromLowerLayer
vector 151  CAIN.eNodeB1.nic.pdcpRrc  sentPacketToUpperLayer:vector(packetBytes)  ETV
attr interpolationmode  none
attr source  sentPacketToUpperLayer
vector 411  CAIN.ueD2DTx[6].nic.mac  CainHopMessageSent:vector  ETV
attr interpolationmode  none
attr title  "# of Sent CAIN hop message, vector"
vector 346  CAIN.ueD2DTx[4].nic.mac  CainMessageSent:vector  ETV
attr interpolationmode  none
attr title  "# of Sent CAIN message, vector"
vector 243  CAIN.ueD2DTx[1].nic.mac  sentPacketToUpperLayer:vector(packetBytes)  ETV
attr interpolationmode  none
attr source  sentPacketToUpperLayer
vector 603  CAIN.ueD2DTx[12].nic.mac  CainHopMessageSent:vector  ETV
attr interpolationmode  none
attr title  "# of Sent CAIN hop message, vector"
vector 596  CAIN.ueD2DTx[12].nic.mac  sentPacketToLowerLayer:vector(packetBytes)  ETV
attr interpolationmode  none
attr source  sentPacketToLowerLayer
vector 755  CAIN.ueD2DTx[17].nic.mac  sentPacketToUpperLayer:vector(packetBytes)  ETV
attr interpolationmode  none
attr source  sentPacketToUpperLayer
vector 275  CAIN.ueD2DTx[2].nic.mac  sentPacketToUpperLayer:vector(packetBytes)  ETV
attr interpolationmode  none
attr source  sentPacketToUpperLayer
vector 219  CAIN.ueD2DTx[0].nic.mac  CainHopMessageSent:vector  ETV
attr interpolationmode  none
attr title  "# of Sent CAIN hop message, vector"
1268	175	0.0000001228	0
1379	260	0.0000006304	65535
1380	260	0.0000006304	8940
1381	260	0.0000006304	0.3725
1377	260	0.0000006304	3
1384	260	0.0000006304	1
1396	188	0.0000003096	0
1352	260	0.0000006304	65535
1353	260	0.0000006304	8940
1354	260	0.0000006304	0.3725
1350	260	0.0000006304	3
1357	260	0.0000006304	1
1369	188	0.0000003096	0
1070	260	0.0000006304	65535
1071	260	0.0000006304	8940
1072	260	0.0000006304	0.3725
1068	260	0.0000006304	3
1068	327	0.0000008564	1
1069	327	0.0000008564	2.26e-07
1074	4138	0.0570000972	2000
1074	4157	0.0570003844	2001
1074	4157	0.0570003844	2002
1074	4157	0.0570003844	2003
1074	4157	0.0570003844	2004
1074	4157	0.0570003844	2005
1074	4157	0.0570003844	2006
1074	4157	0.0570003844	2007
1074	19219	0.2570015836	2008
1074	19219	0.2570015836	2009
1074	19219	0.2570015836	2010
1074	19219	0.2570015836	2011
1074	19219	0.2570015836	2012
1074	19219	0.2570015836	2013
1074	19219	0.2570015836	2014
1074	19219	0.2570015836	2015
1074	19219	0.2570015836	2016
1074	19219	0.2570015836	2017
1074	19219	0.2570015836	2018
1074	19219	0.2570015836	2019
1074	19219	0.2570015836	2020
1074	19219	0.2570015836	2021
1074	19219	0.2570015836	2022
1074	19219	0.2570015836	2023
1074	19219	0.2570015836	2024
1074	19219	0.2570015836	2025
1074	19219	0.2570015836	2026
1074	19219	0.2570015836	2027
1074	19219	0.2570015836	2028
1074	19219	0.2570015836	2029
1074	19219	0.2570015836	2030
1074	19219	0.2570015836	2031
1074	19219	0.2570015836	2032
1074	19219	0.2570015836	2033
1074	19219	0.2570015836	2034
1074	19219	0.2570015836	2035
1074	19219	0.2570015836	2036
1074	19219	0.2570015836	2037
1074	19219	0.2570015836	2038
1074	19219	0.2570015836	2039
1074	19219	0.2570015836	2040
1074	19219	0.2570015836	2041
1074	19219	0.2570015836	2042
1074	19219	0.2570015836	2043
1074	19219	0.2570015836	2044
1074	19219	0.2570015836	2045
1074	19219	0.2570015836	2046
1074	19219	0.2570015836	2047
1074	19219	0.2570015836	2048
1074	19219	0.2570015836	2049
1074	19219	0.2570015836	2050
1074	19219	0.2570015836	2051
1074	19219	0.2570015836	2052
1074	19219	0.2570015836	2053
1074	19219	0.2570015836	2054
1074	19219	0.2570015836	2055
1074	19219	0.2570015836	2056
1074	19219	0.2570015836	2057
1074	19219	0.2570015836	2058
1074	19219	0.2570015836	2059
1074	19219	0.2570015836	2060
1074	19219	0.2570015836	2061
1074	19219	0.2570015836	2062
1074	19219	0.2570015836	2063
1074	19219	0.2570015836	2064
1074	19219	0.2570015836	2065
1074	19219	0.2570015836	2066
1074	19219	0.2570015836	2067
1074	19219	0.2570015836	2068
1074	19219	0.2570015836	2069
1074	19219	0.2570015836	2070
1074	19219	0.2570015836	2071
1077	232	0.000000552	1
1077	246	0.000000596	2
1076	232	0.000000552	1
1076	246	0.000000596	2
1078	327	0.0000008564	1
1078	333	0.0000009004	2
1087	156	0	0
1046	4138	0.0570000972	65533
1046	19205	0.2570003844	65535
1046	33737	0.4570015836	65535
1050	4138	0.0570000972	2
1050	4141	0.0570000972	2
1050	4165	0.0570003844	14
1050	4166	0.0570003844	0
1050	4167	0.0570003844	0
1050	4168	0.0570003844	0
1050	4169	0.0570003844	0
1050	4170	0.0570003844	0
1050	4171	0.0570003844	0
1050	19205	0.2570003844	0
1050	19284	0.2570015836	128
1050	19285	0.2570015836	0
1050	19286	0.2570015836	0
1050	19287	0.2570015836	0
1050	19288	0.2570015836	0
1050	19289	0.2570015836	0
1050	19290	0.2570015836	0
1050	19291	0.2570015836	0
1050	19292	0.2570015836	0
1050	19293	0.2570015836	0
1050	19294	0.2570015836	0
1050	19295	0.2570015836	0
1050	19296	0.2570015836	0
1050	19297	0.2570015836	0
1050	19298	0.2570015836	0
1050	19299	0.2570015836	0
1050	19300	0.2570015836	0
1050	19301	0.2570015836	0
1050	19302	0.2570015836	0
1050	19303	0.2570015836	0
1050	19304	0.2570015836	0
1050	19305	0.2570015836	0
1050	19306	0.2570015836	0
1050	19307	0.2570015836	0
1050	19308	0.2570015836	0
1050	19309	0.2570015836	0
1050	19310	0.2570015836	0
1050	19311	0.2570015836	0
1050	19312	0.2570015836	0
1050	19313	0.2570015836	0
1050	19314	0.2570015836	0
1050	19315	0.2570015836	0
1050	19316	0.2570015836	0
1050	19317	0.2570015836	0
1050	19318	0.2570015836	0
1050	19319	0.2570015836	0
1050	19320	0.2570015836	0
1050	19321	0.2570015836	0
1050	19322	0.2570015836	0
1050	19323	0.2570015836	0
1050	19324	0.2570015836	0
1050	19325	0.2570015836	0
1050	19326	0.2570015836	0
1050	19327	0.2570015836	0
1050	19328	0.2570015836	0
1050	19329	0.2570015836	0
1050	19330	0.2570015836	0
1050	19331	0.2570015836	0
1050	19332	0.2570015836	0
1050	19333	0.2570015836	0
1050	19334	0.2570015836	0
1050	19335	0.2570015836	0
1050	19336	0.2570015836	0
1050	19337	0.2570015836	0
1050	19338	0.2570015836	0
1050	19339	0.2570015836	0
1050	19340	0.2570015836	0
1050	19341	0.2570015836	0
1050	19342	0.2570015836	0
1050	19343	0.2570015836	0
1050	19344	0.2570015836	0
1050	19345	0.2570015836	0
1050	19346	0.2570015836	0
1050	19347	0.2570015836	0
1050	33737	0.4570015836	0
1055	4138	0.0570000972	0
1055	19205	0.2570003844	0
1055	33737	0.4570015836	0
1056	4138	0.0570000972	0
1056	19205	0.2570003844	0
1056	33737	0.4570015836	0
1057	4138	0.0570000972	0
1057	19205	0.2570003844	0
1057	33737	0.4570015836	0
1058	4138	0.0570000972	0
1058	19205	0.2570003844	0
1058	33737	0.4570015836	0
1059	4138	0.0570000972	0
1059	19205	0.2570003844	0
1059	33737	0.4570015836	0
1060	4138	0.0570000972	0
1060	19205	0.2570003844	0
1060	33737	0.4570015836	0
1061	4138	0.0570000972	0
1061	19205	0.2570003844	0
1061	33737	0.4570015836	0
1062	4138	0.0570000972	16
1062	19205	0.2570003844	16
1062	33737	0.4570015836	16
1064	188	0.0000003096	65535
1066	4141	0.0570000972	9.72e-08
1066	4165	0.0570003844	1.932e-07
1066	4165	0.0570003844	1.932e-07
1066	4165	0.0570003844	1.932e-07
1066	4165	0.0570003844	1.932e-07
1066	4165	0.0570003844	1.932e-07
1066	4165	0.0570003844	1.932e-07
1066	4165	0.0570003844	1.932e-07
1066	19284	0.2570015836	1.1052e-06
1066	19284	0.2570015836	1.1052e-06
1066	19284	0.2570015836	1.1052e-06
1066	19284	0.2570015836	1.1052e-06
1066	19284	0.2570015836	1.1052e-06
1066	19284	0.2570015836	1.1052e-06
1066	19284	0.2570015836	1.1052e-06
1066	19284	0.2570015836	1.1052e-06
1066	19284	0.2570015836	1.1052e-06
1066	19284	0.2570015836	1.1052e-06
1066	19284	0.2570015836	1.1052e-06
1066	19284	0.2570015836	1.1052e-06
1066	19284	0.2570015836	1.1052e-06
1066	19284	0.2570015836	1.1052e-06
1066	19284	0.2570015836	1.1052e-06
1066	19284	0.2570015836	1.1052e-06
1066	19284	0.2570015836	1.1052e-06
1066	19284	0.2570015836	1.1052e-06
1066	19284	0.2570015836	1.1052e-06
1066	19284	0.2570015836	1.1052e-06
1066	19284	0.2570015836	1.1052e-06
1066	19284	0.2570015836	1.1052e-06
1066	19284	0.2570015836	1.1052e-06
1066	19284	0.2570015836	1.1052e-06
1066	19284	0.2570015836	1.1052e-06
1066	19284	0.2570015836	1.1052e-06
1066	19284	0.2570015836	1.1052e-06
1066	19284	0.2570015836	1.1052e-06
1066	19284	0.2570015836	1.1052e-06
1066	19284	0.2570015836	1.1052e-06
1066	19284	0.2570015836	1.1052e-06
1066	19284	0.2570015836	1.1052e-06
1066	19284	0.2570015836	1.1052e-06
1066	19284	0.2570015836	1.1052e-06
1066	19284	0.2570015836	1.1052e-06
1066	19284	0.2570015836	1.1052e-06
1066	19284	0.2570015836	1.1052e-06
1066	19284	0.2570015836	1.1052e-06
1066	19284	0.2570015836	1.1052e-06
1066	19284	0.2570015836	1.1052e-06
1066	19284	0.2570015836	1.1052e-06
1066	19284	0.2570015836	1.1052e-06
1066	19284	0.2570015836	1.1052e-06
1066	19284	0.2570015836	1.1052e-06
1066	19284	0.2570015836	1.1052e-06
1066	19284	0.2570015836	1.1052e-06
1066	19284	0.2570015836	1.1052e-06
1066	19284	0.2570015836	1.1052e-06
1066	19284	0.2570015836	1.1052e-06
1066	19284	0.2570015836	1.1052e-06
1066	19284	0.2570015836	1.1052e-06
1066	19284	0.2570015836	1.1052e-06
1066	19284	0.2570015836	1.1052e-06
1066	19284	0.2570015836	1.1052e-06
1066	19284	0.2570015836	1.1052e-06
1066	19284	0.2570015836	1.1052e-06
1066	19284	0.2570015836	1.1052e-06
1066	19284	0.2570015836	1.1052e-06
1066	19284	0.2570015836	1.1052e-06
1066	19284	0.2570015836	1.1052e-06
1066	19284	0.2570015836	1.1052e-06
1066	19284	0.2570015836	1.1052e-06
1066	19284	0.2570015836	1.1052e-06
1066	19284	0.2570015836	1.1052e-06
1067	156	0	0
1298	203	0.000000458	65535
1299	203	0.000000458	8940
1300	203	0.000000458	0.3725
1296	203	0.000000458	3
1303	203	0.000000458	1
1311	729	0.0070001912	0
1311	15381	0.2070004784	0
1311	30190	0.4070016776	0
1312	729	0.0070001912	0
1312	15381	0.2070004784	0
1312	30190	0.4070016776	0
1313	729	0.0070001912	0
1313	15381	0.2070004784	0
1313	30190	0.4070016776	0
1315	175	0.0000001228	0
1271	203	0.000000458	65535
1272	203	0.000000458	8940
1273	203	0.000000458	0.3725
1269	203	0.000000458	3
1276	203	0.000000458	1
1284	729	0.0070001912	0
1284	15381	0.2070004784	0
1284	30190	0.4070016776	0
1285	729	0.0070001912	0
1285	15381	0.2070004784	0
1285	30190	0.4070016776	0
1286	729	0.0070001912	0
1286	15381	0.2070004784	0
1286	30190	0.4070016776	0
1288	175	0.0000001228	0
1325	203	0.000000458	65535
1325	86922	1.2070004784	65535
1326	203	0.000000458	8940
1326	86922	1.2070004784	8940
1327	203	0.000000458	0.3725
1327	86922	1.2070004784	23.84
1323	203	0.000000458	3
1323	280	0.0000006744	1
1323	729	0.0070001912	1
1323	15381	0.2070004784	1
1323	30190	0.4070016776	1
1324	280	0.0000006744	2.164e-07
1324	729	0.0070001912	1.912e-07
1324	15381	0.2070004784	0.2000002872
1324	30190	0.4070016776	0.2000011992
1328	674	0.007	2000
1328	729	0.0070001912	2001
1328	729	0.0070001912	2002
1328	729	0.0070001912	2003
1328	729	0.0070001912	2004
1328	729	0.0070001912	2005
1328	729	0.0070001912	2006
1328	729	0.0070001912	2007
1328	15381	0.2070004784	2008
1328	15381	0.2070004784	2009
1328	15381	0.2070004784	2010
1328	15381	0.2070004784	2011
1328	15381	0.2070004784	2012
1328	15381	0.2070004784	2013
1328	15381	0.2070004784	2014
1328	15381	0.2070004784	2015
1328	15381	0.2070004784	2016
1328	15381	0.2070004784	2017
1328	15381	0.2070004784	2018
1328	15381	0.2070004784	2019
1328	15381	0.2070004784	2020
1328	15381	0.2070004784	2021
1328	15381	0.2070004784	2022
1328	15381	0.2070004784	2023
1328	15381	0.2070004784	2024
1328	15381	0.2070004784	2025
1328	15381	0.2070004784	2026
1328	15381	0.2070004784	2027
1328	15381	0.2070004784	2028
1328	15381	0.2070004784	2029
1328	15381	0.2070004784	2030
1328	15381	0.2070004784	2031
1328	15381	0.2070004784	2032
1328	15381	0.2070004784	2033
1328	15381	0.2070004784	2034
1328	15381	0.2070004784	2035
1328	15381	0.2070004784	2036
1328	15381	0.2070004784	2037
1328	15381	0.2070004784	2038
1328	15381	0.2070004784	2039
1328	15381	0.2070004784	2040
1328	15381	0.2070004784	2041
1328	15381	0.2070004784	2042
1328	15381	0.2070004784	2043
1328	15381	0.2070004784	2044
1328	15381	0.2070004784	2045
1328	15381	0.2070004784	2046
1328	15381	0.2070004784	2047
1328	15381	0.2070004784	2048
1328	15381	0.2070004784	2049
1328	15381	0.2070004784	2050
1328	15381	0.2070004784	2051
1328	15381	0.2070004784	2052
1328	15381	0.2070004784	2053
1328	15381	0.2070004784	2054
1328	15381	0.2070004784	2055
1328	15381	0.2070004784	2056
1328	15381	0.2070004784	2057
1328	15381	0.2070004784	2058
1328	15381	0.2070004784	2059
1328	15381	0.2070004784	2060
1328	15381	0.2070004784	2061
1328	15381	0.2070004784	2062
1328	15381	0.2070004784	2063
1328	15381	0.2070004784	2064
1328	15381	0.2070004784	2065
1328	15381	0.2070004784	2066
1328	15381	0.2070004784	2067
1328	15381	0.2070004784	2068
1328	15381	0.2070004784	2069
1328	15381	0.2070004784	2070
1328	15381	0.2070004784	2071
1332	298	0.0000007624	1
1332	312	0.0000008064	2
1331	298	0.0000007624	1
1331	312	0.0000008064	2
1333	280	0.0000006744	1
1333	290	0.0000007184	2
1334	674	0.007	2
1334	729	0.0070001912	0
1334	729	0.0070001912	2
1334	729	0.0070001912	4
1334	729	0.0070001912	6
1334	729	0.0070001912	8
1334	729	0.0070001912	10
1334	729	0.0070001912	12
1334	729	0.0070001912	14
1334	15381	0.2070004784	12
1334	15381	0.2070004784	10
1334	15381	0.2070004784	8
1334	15381	0.2070004784	6
1334	15381	0.2070004784	4
1334	15381	0.2070004784	2
1334	15381	0.2070004784	0
1334	15381	0.2070004784	2
1334	15381	0.2070004784	4
1334	15381	0.2070004784	6
1334	15381	0.2070004784	8
1334	15381	0.2070004784	10
1334	15381	0.2070004784	12
1334	15381	0.2070004784	14
1334	15381	0.2070004784	16
1334	15381	0.2070004784	18
1334	15381	0.2070004784	20
1334	15381	0.2070004784	22
1334	15381	0.2070004784	24
1334	15381	0.2070004784	26
1334	15381	0.2070004784	28
1334	15381	0.2070004784	30
1334	15381	0.2070004784	32
1334	15381	0.2070004784	34
1334	15381	0.2070004784	36
1334	15381	0.2070004784	38
1334	15381	0.2070004784	40
1334	15381	0.2070004784	42
1334	15381	0.2070004784	44
1334	15381	0.2070004784	46
1334	15381	0.2070004784	48
1334	15381	0.2070004784	50
1334	15381	0.2070004784	52
1334	15381	0.2070004784	54
1334	15381	0.2070004784	56
1334	15381	0.2070004784	58
1334	15381	0.2070004784	60
1334	15381	0.2070004784	62
1334	15381	0.2070004784	64
1334	15381	0.2070004784	66
1334	15381	0.2070004784	68
1334	15381	0.2070004784	70
1334	15381	0.2070004784	72
1334	15381	0.2070004784	74
1334	15381	0.2070004784	76
1334	15381	0.2070004784	78
1334	15381	0.2070004784	80
1334	15381	0.2070004784	82
1334	15381	0.2070004784	84
1334	15381	0.2070004784	86
1334	15381	0.2070004784	88
1334	15381	0.2070004784	90
1334	15381	0.2070004784	92
1334	15381	0.2070004784	94
1334	15381	0.2070004784	96
1334	15381	0.2070004784	98
1334	15381	0.2070004784	100
1334	15381	0.2070004784	102
1334	15381	0.2070004784	104
1334	15381	0.2070004784	106
1334	15381	0.2070004784	108
1334	15381	0.2070004784	110
1334	15381	0.2070004784	112
1334	15381	0.2070004784	114
1334	15381	0.2070004784	116
1334	15381	0.2070004784	118
1334	15381	0.2070004784	120
1334	15381	0.2070004784	122
1334	15381	0.2070004784	124
1334	15381	0.2070004784	126
1334	15381	0.2070004784	128
1334	30190	0.4070016776	126
1334	30190	0.4070016776	124
1334	30190	0.4070016776	122
1334	30190	0.4070016776	120
1334	30190	0.4070016776	118
1334	30190	0.4070016776	116
1334	30190	0.4070016776	114
1334	30190	0.4070016776	112
1334	30190	0.4070016776	110
1334	30190	0.4070016776	108
1334	30190	0.4070016776	106
1334	30190	0.4070016776	104
1334	30190	0.4070016776	102
1334	30190	0.4070016776	100
1334	30190	0.4070016776	98
1334	30190	0.4070016776	96
1334	30190	0.4070016776	94
1334	30190	0.4070016776	92
1334	30190	0.4070016776	90
1334	30190	0.4070016776	88
1334	30190	0.4070016776	86
1334	30190	0.4070016776	84
1334	30190	0.4070016776	82
1334	30190	0.4070016776	80
1334	30190	0.4070016776	78
1334	30190	0.4070016776	76
1334	30190	0.4070016776	74
1334	30190	0.4070016776	72
1334	30190	0.4070016776	70
1334	30190	0.4070016776	68
1334	30190	0.4070016776	66
1334	30190	0.4070016776	64
1334	30190	0.4070016776	62
1334	30190	0.4070016776	60
1334	30190	0.4070016776	58
1334	30190	0.4070016776	56
1334	30190	0.4070016776	54
1334	30190	0.4070016776	52
1334	30190	0.4070016776	50
1334	30190	0.4070016776	48
1334	30190	0.4070016776	46
1334	30190	0.4070016776	44
1334	30190	0.4070016776	42
1334	30190	0.4070016776	40
1334	30190	0.4070016776	38
1334	30190	0.4070016776	36
1334	30190	0.4070016776	34
1334	30190	0.4070016776	32
1334	30190	0.4070016776	30
1334	30190	0.4070016776	28
1334	30190	0.4070016776	26
1334	30190	0.4070016776	24
1334	30190	0.4070016776	22
1334	30190	0.4070016776	20
1334	30190	0.4070016776	18
1334	30190	0.4070016776	16
1334	30190	0.4070016776	14
1334	30190	0.4070016776	12
1334	30190	0.4070016776	10
1334	30190	0.4070016776	8
1334	30190	0.4070016776	6
1334	30190	0.4070016776	4
1334	30190	0.4070016776	2
1334	30190	0.4070016776	0
1335	674	0.007	2
1335	729	0.0070001912	0
1335	729	0.0070001912	2
1335	729	0.0070001912	4
1335	729	0.0070001912	6
1335	729	0.0070001912	8
1335	729	0.0070001912	10
1335	729	0.0070001912	12
1335	729	0.0070001912	14
1335	15381	0.2070004784	12
1335	15381	0.2070004784	10
1335	15381	0.2070004784	8
1335	15381	0.2070004784	6
1335	15381	0.2070004784	4
1335	15381	0.2070004784	2
1335	15381	0.2070004784	0
1335	15381	0.2070004784	2
1335	15381	0.2070004784	4
1335	15381	0.2070004784	6
1335	15381	0.2070004784	8
1335	15381	0.2070004784	10
1335	15381	0.2070004784	12
1335	15381	0.2070004784	14
1335	15381	0.2070004784	16
1335	15381	0.2070004784	18
1335	15381	0.2070004784	20
1335	15381	0.2070004784	22
1335	15381	0.2070004784	24
1335	15381	0.2070004784	26
1335	15381	0.2070004784	28
1335	15381	0.2070004784	30
1335	15381	0.2070004784	32
1335	15381	0.2070004784	34
1335	15381	0.2070004784	36
1335	15381	0.2070004784	38
1335	15381	0.2070004784	40
1335	15381	0.2070004784	42
1335	15381	0.2070004784	44
1335	15381	0.2070004784	46
1335	15381	0.2070004784	48
1335	15381	0.2070004784	50
1335	15381	0.2070004784	52
1335	15381	0.2070004784	54
1335	15381	0.2070004784	56
1335	15381	0.2070004784	58
1335	15381	0.2070004784	60
1335	15381	0.2070004784	62
1335	15381	0.2070004784	64
1335	15381	0.2070004784	66
1335	15381	0.2070004784	68
1335	15381	0.2070004784	70
1335	15381	0.2070004784	72
1335	15381	0.2070004784	74
1335	15381	0.2070004784	76
1335	15381	0.2070004784	78
1335	15381	0.2070004784	80
1335	15381	0.2070004784	82
1335	15381	0.2070004784	84
1335	15381	0.2070004784	86
1335	15381	0.2070004784	88
1335	15381	0.2070004784	90
1335	15381	0.2070004784	92
1335	15381	0.2070004784	94
1335	15381	0.2070004784	96
1335	15381	0.2070004784	98
1335	15381	0.2070004784	100
1335	15381	0.2070004784	102
1335	15381	0.2070004784	104
1335	15381	0.2070004784	106
1335	15381	0.2070004784	108
1335	15381	0.2070004784	110
1335	15381	0.2070004784	112
1335	15381	0.2070004784	114
1335	15381	0.2070004784	116
1335	15381	0.2070004784	118
1335	15381	0.2070004784	120
1335	15381	0.2070004784	122
1335	15381	0.2070004784	124
1335	15381	0.2070004784	126
1335	15381	0.2070004784	128
1335	30190	0.4070016776	126
1335	30190	0.4070016776	124
1335	30190	0.4070016776	122
1335	30190	0.4070016776	120
1335	30190	0.4070016776	118
1335	30190	0.4070016776	116
1335	30190	0.4070016776	114
1335	30190	0.4070016776	112
1335	30190	0.4070016776	110
1335	30190	0.4070016776	108
1335	30190	0.4070016776	106
1335	30190	0.4070016776	104
1335	30190	0.4070016776	102
1335	30190	0.4070016776	100
1335	30190	0.4070016776	98
1335	30190	0.4070016776	96
1335	30190	0.4070016776	94
1335	30190	0.4070016776	92
1335	30190	0.4070016776	90
1335	30190	0.4070016776	88
1335	30190	0.4070016776	86
1335	30190	0.4070016776	84
1335	30190	0.4070016776	82
1335	30190	0.4070016776	80
1335	30190	0.4070016776	78
1335	30190	0.4070016776	76
1335	30190	0.4070016776	74
1335	30190	0.4070016776	72
1335	30190	0.4070016776	70
1335	30190	0.4070016776	68
1335	30190	0.4070016776	66
1335	30190	0.4070016776	64
1335	30190	0.4070016776	62
1335	30190	0.4070016776	60
1335	30190	0.4070016776	58
[...]
948	205476	2.88	0
948	205824	2.885	0
948	206197	2.89	0
948	206570	2.895	0
948	206895	2.9	0
948	207268	2.905	0
948	207616	2.91	0
948	207964	2.915	0
948	208337	2.92	0
948	208710	2.925	0
948	209016	2.93	0
948	209389	2.935	0
948	209737	2.94	0
948	210085	2.945	0
948	210458	2.95	0
948	210831	2.955	0
948	211137	2.96	0
948	211510	2.965	0
948	211858	2.97	0
948	212206	2.975	0
948	212579	2.98	0
948	212952	2.985	0
948	213258	2.99	0
948	213631	2.995	0
948	213998	3	0
948	214346	3.005	0
948	214719	3.01	0
948	215104	3.015	0
948	215427	3.02	0
948	215834	3.025	0
948	216236	3.03	0
948	216609	3.035	0
948	217030	3.04	0
948	217502	3.045	0
948	217904	3.05	0
948	218377	3.055	0
948	218781	3.06	0
948	219159	3.065	0
948	219564	3.07	0
948	220005	3.075	0
948	220390	3.08	0
948	220855	3.085	0
948	221283	3.09	0
948	221683	3.095	0
948	222175	3.1	0
948	222655	3.105	0
948	223079	3.11	0
948	223490	3.115	0
948	223868	3.12	0
948	224246	3.125	0
948	224649	3.13	0
948	225052	3.135	0
948	225388	3.14	0
948	225791	3.145	0
948	226169	3.15	0
948	226547	3.155	0
948	226950	3.16	0
948	227353	3.165	0
948	227689	3.17	0
948	228092	3.175	0
948	228470	3.18	0
948	228849	3.185	0
948	229252	3.19	0
948	229655	3.195	0
948	230009	3.2	0
948	230412	3.205	0
948	230790	3.21	0
955	7121	0.095	1
955	7581	0.1	2
955	8022	0.105	3
955	8389	0.11	4
955	8784	0.115	5
955	9143	0.12	6
955	9491	0.125	7
955	9864	0.13	8
955	10237	0.135	9
955	10543	0.14	10
955	10916	0.145	11
955	11264	0.15	12
955	11612	0.155	13
955	11985	0.16	14
955	12358	0.165	15
955	12664	0.17	16
955	13037	0.175	17
955	13385	0.18	18
955	13733	0.185	19
955	14106	0.19	20
955	14479	0.195	21
955	14804	0.2	22
955	15177	0.205	23
955	15860	0.21	24
955	16208	0.215	25
955	16581	0.22	26
955	16954	0.225	27
955	17260	0.23	28
955	17633	0.235	29
955	17981	0.24	30
955	18329	0.245	31
955	18702	0.25	32
955	19075	0.255	33
955	19716	0.26	34
955	20089	0.265	35
955	20437	0.27	36
955	20785	0.275	37
955	21158	0.28	38
955	21531	0.285	39
955	21837	0.29	40
955	22210	0.295	41
955	22577	0.3	42
955	22925	0.305	43
955	23298	0.31	44
955	23671	0.315	45
955	23977	0.32	46
955	24350	0.325	47
955	24698	0.33	48
955	25046	0.335	49
955	25419	0.34	50
955	25792	0.345	51
955	26098	0.35	52
955	26471	0.355	53
955	26819	0.36	54
955	27167	0.365	55
955	27540	0.37	56
955	27913	0.375	57
955	28219	0.38	58
955	28592	0.385	59
955	28940	0.39	60
955	29288	0.395	61
955	29680	0.4	62
955	30053	0.405	63
955	30367	0.41	64
955	30740	0.415	65
955	31088	0.42	66
955	31436	0.425	67
955	31809	0.43	68
955	32182	0.435	69
955	32488	0.44	70
955	32861	0.445	71
955	33209	0.45	72
955	33557	0.455	73
955	33938	0.46	74
955	34311	0.465	75
955	34617	0.47	76
955	34990	0.475	77
955	35338	0.48	78
955	35686	0.485	79
955	36059	0.49	80
955	36432	0.495	81
955	36757	0.5	82
955	37130	0.505	83
955	37478	0.51	84
955	37826	0.515	85
955	38199	0.52	86
955	38572	0.525	87
955	38878	0.53	88
955	39251	0.535	89
955	39599	0.54	90
955	39947	0.545	91
955	40320	0.55	92
955	40693	0.555	93
955	40999	0.56	94
955	41372	0.565	95
955	41720	0.57	96
955	42068	0.575	97
955	42441	0.58	98
955	42814	0.585	99
955	43120	0.59	100
955	43493	0.595	101
955	43860	0.6	102
955	44208	0.605	103
955	44581	0.61	104
955	44954	0.615	105
955	45260	0.62	106
955	45633	0.625	107
955	45981	0.63	108
955	46329	0.635	109
955	46702	0.64	110
955	47075	0.645	111
955	47381	0.65	112
955	47754	0.655	113
955	48102	0.66	114
955	48450	0.665	115
955	48823	0.67	116
955	49196	0.675	117
955	49502	0.68	118
955	49875	0.685	119
955	50223	0.69	120
955	50571	0.695	121
955	50963	0.7	122
955	51336	0.705	123
955	51642	0.71	124
955	52015	0.715	125
955	52363	0.72	126
955	52711	0.725	127
955	53084	0.73	128
955	53457	0.735	129
955	53763	0.74	130
955	54136	0.745	131
955	54484	0.75	132
955	54832	0.755	133
955	55205	0.76	134
955	55578	0.765	135
955	55884	0.77	136
955	56257	0.775	137
955	56605	0.78	138
955	56953	0.785	139
955	57326	0.79	140
955	57699	0.795	141
955	58024	0.8	142
955	58397	0.805	143
955	58745	0.81	144
955	59093	0.815	145
955	59466	0.82	146
955	59839	0.825	147
955	60145	0.83	148
955	60518	0.835	149
955	60866	0.84	150
955	61214	0.845	151
955	61587	0.85	152
955	61960	0.855	153
955	62266	0.86	154
955	62639	0.865	155
955	62987	0.87	156
955	63335	0.875	157
955	63708	0.88	158
955	64081	0.885	159
955	64387	0.89	160
955	64760	0.895	161
955	65127	0.9	162
955	65475	0.905	163
955	65848	0.91	164
955	66221	0.915	165
955	66527	0.92	166
955	66900	0.925	167
955	67248	0.93	168
955	67596	0.935	169
955	67969	0.94	170
955	68342	0.945	171
955	68648	0.95	172
955	69021	0.955	173
955	69369	0.96	174
955	69717	0.965	175
955	70090	0.97	176
955	70463	0.975	177
955	70769	0.98	178
955	71142	0.985	179
955	71490	0.99	180
955	71838	0.995	181
955	72230	1	182
955	72603	1.005	183
955	72909	1.01	184
955	73282	1.015	185
955	73630	1.02	186
955	73978	1.025	187
955	74351	1.03	188
955	74724	1.035	189
955	75030	1.04	190
955	75403	1.045	191
955	75751	1.05	192
955	76099	1.055	193
955	76472	1.06	194
955	76845	1.065	195
955	77151	1.07	196
955	77524	1.075	197
955	77872	1.08	198
955	78220	1.085	199
955	78593	1.09	200
955	78966	1.095	201
955	79291	1.1	202
955	79664	1.105	203
955	80012	1.11	204
955	80360	1.115	205
955	80733	1.12	206
955	81106	1.125	207
955	81412	1.13	208
955	81785	1.135	209
955	82133	1.14	210
955	82481	1.145	211
955	82854	1.15	212
955	83227	1.155	213
955	83533	1.16	214
955	83906	1.165	215
955	84254	1.17	216
955	84602	1.175	217
955	84975	1.18	218
955	85348	1.185	219
955	85654	1.19	220
955	86027	1.195	221
955	86394	1.2	222
955	86742	1.205	223
955	87116	1.21	224
955	87489	1.215	225
955	87795	1.22	226
955	88168	1.225	227
955	88516	1.23	228
955	88864	1.235	229
955	89237	1.24	230
955	89610	1.245	231
955	89916	1.25	232
955	90289	1.255	233
955	90638	1.26	234
955	90986	1.265	235
955	91359	1.27	236
955	91732	1.275	237
955	92038	1.28	238
955	92411	1.285	239
955	92759	1.29	240
955	93107	1.295	241
955	93499	1.3	242
955	93872	1.305	243
955	94178	1.31	244
955	94551	1.315	245
955	94899	1.32	246
955	95247	1.325	247
955	95620	1.33	248
955	95993	1.335	249
955	96299	1.34	250
955	96672	1.345	251
955	97020	1.35	252
955	97368	1.355	253
955	97741	1.36	254
955	98114	1.365	255
955	98420	1.37	256
955	98793	1.375	257
955	99141	1.38	258
955	99489	1.385	259
955	99862	1.39	260
955	100235	1.395	261
955	100560	1.4	262
955	100933	1.405	263
955	101281	1.41	264
955	101629	1.415	265
955	102002	1.42	266
955	102375	1.425	267
955	102681	1.43	268
955	103054	1.435	269
955	103402	1.44	270
955	103750	1.445	271
955	104123	1.45	272
955	104496	1.455	273
955	104802	1.46	274
955	105175	1.465	275
955	105523	1.47	276
955	105871	1.475	277
955	106244	1.48	278
955	106617	1.485	279
955	106923	1.49	280
955	107296	1.495	281
955	107663	1.5	282
955	108011	1.505	283
955	108384	1.51	284
955	108757	1.515	285
955	109063	1.52	286
955	109436	1.525	287
955	109784	1.53	288
955	110132	1.535	289
955	110505	1.54	290
955	110878	1.545	291
955	111184	1.55	292
955	111557	1.555	293
955	111905	1.56	294
955	112253	1.565	295
955	112626	1.57	296
955	112999	1.575	297
955	113305	1.58	298
955	113678	1.585	299
955	114026	1.59	300
955	114374	1.595	301
955	114766	1.6	302
955	115139	1.605	303
955	115445	1.61	304
955	115818	1.615	305
955	116166	1.62	306
955	116514	1.625	307
955	116887	1.63	308
955	117260	1.635	309
955	117566	1.64	310
955	117939	1.645	311
955	118287	1.65	312
955	118635	1.655	313
955	119008	1.66	314
955	119381	1.665	315
955	119687	1.67	316
955	120060	1.675	317
955	120408	1.68	318
955	120756	1.685	319
955	121129	1.69	320
955	121502	1.695	321
955	121827	1.7	322
955	122200	1.705	323
955	122548	1.71	324
955	122896	1.715	325
955	123269	1.72	326
955	123642	1.725	327
955	123948	1.73	328
955	124321	1.735	329
955	124669	1.74	330
955	125017	1.745	331
955	125390	1.75	332
955	125763	1.755	333
955	126069	1.76	334
955	126442	1.765	335
955	126790	1.77	336
955	127138	1.775	337
955	127511	1.78	338
955	127884	1.785	339
955	128190	1.79	340
955	128563	1.795	341
955	128930	1.8	342
955	129278	1.805	343
955	129651	1.81	344
955	130024	1.815	345
955	130330	1.82	346
955	130703	1.825	347
955	131051	1.83	348
955	131399	1.835	349
955	131772	1.84	350
955	132145	1.845	351
955	132451	1.85	352
955	132824	1.855	353
955	133172	1.86	354
955	133520	1.865	355
955	133893	1.87	356
955	134266	1.875	357
955	134572	1.88	358
955	134945	1.885	359
955	135293	1.89	360
955	135641	1.895	361
955	136033	1.9	362
955	136406	1.905	363
955	136712	1.91	364
955	137085	1.915	365
955	137433	1.92	366
955	137781	1.925	367
955	138154	1.93	368
955	138527	1.935	369
955	138833	1.94	370
955	139206	1.945	371
955	139554	1.95	372
955	139902	1.955	373
955	140275	1.96	374
955	140648	1.965	375
955	140954	1.97	376
955	141327	1.975	377
955	141675	1.98	378
955	142023	1.985	379
955	142396	1.99	380
955	142769	1.995	381
955	143094	2	382
955	143467	2.005	383
955	143815	2.01	384
955	144163	2.015	385
955	144536	2.02	386
955	144909	2.025	387
955	145215	2.03	388
955	145588	2.035	389
955	145936	2.04	390
955	146284	2.045	391
955	146657	2.05	392
955	147030	2.055	393
955	147336	2.06	394
955	147709	2.065	395
955	148057	2.07	396
955	148405	2.075	397
955	148778	2.08	398
955	149151	2.085	399
955	149457	2.09	400
955	149830	2.095	401
955	150197	2.1	402
955	150545	2.105	403
955	150918	2.11	404
955	151291	2.115	405
955	151597	2.12	406
955	151970	2.125	407
955	152318	2.13	408
955	152666	2.135	409
955	153039	2.14	410
955	153412	2.145	411
955	153718	2.15	412
955	154091	2.155	413
955	154439	2.16	414
955	154787	2.165	415
955	155160	2.17	416
955	155533	2.175	417
955	155839	2.18	418
955	156212	2.185	419
955	156560	2.19	420
955	156908	2.195	421
955	157300	2.2	422
955	157673	2.205	423
955	157979	2.21	424
955	158352	2.215	425
955	158700	2.22	426
955	159048	2.225	427
955	159421	2.23	428
955	159794	2.235	429
955	160100	2.24	430
955	160473	2.245	431
955	160821	2.25	432
955	161169	2.255	433
955	161542	2.26	434
955	161915	2.265	435
955	162221	2.27	436
955	162594	2.275	437
955	162942	2.28	438
955	163290	2.285	439
955	163663	2.29	440
955	164036	2.295	441
955	164361	2.3	442
955	164734	2.305	443
955	165082	2.31	444
955	165430	2.315	445
955	165803	2.32	446
955	166176	2.325	447
955	166482	2.33	448
955	166855	2.335	449
955	167203	2.34	450
955	167551	2.345	451
955	167924	2.35	452
955	168297	2.355	453
955	168603	2.36	454
955	168976	2.365	455
955	169324	2.37	456
955	169672	2.375	457
955	170045	2.38	458
955	170418	2.385	459
955	170724	2.39	460
955	171097	2.395	461
955	171464	2.4	462
955	171812	2.405	463
955	172185	2.41	464
955	172558	2.415	465
955	172864	2.42	466
955	173237	2.425	467
955	173585	2.43	468
955	173933	2.435	469
955	174306	2.44	470
955	174679	2.445	471
955	174985	2.45	472
955	175358	2.455	473
955	175706	2.46	474
955	176054	2.465	475
955	176427	2.47	476
955	176800	2.475	477
955	177106	2.48	478
955	177479	2.485	479
955	177827	2.49	480
955	178175	2.495	481
955	178567	2.5	482
955	178940	2.505	483
955	179246	2.51	484
955	179619	2.515	485
955	179967	2.52	486
955	180315	2.525	487
955	180688	2.53	488
955	181061	2.535	489
955	181367	2.54	490
955	181740	2.545	491
955	182088	2.55	492
955	182436	2.555	493
955	182809	2.56	494
955	183182	2.565	495
955	183488	2.57	496
955	183861	2.575	497
955	184209	2.58	498
955	184557	2.585	499
955	184930	2.59	500
955	185303	2.595	501
955	185628	2.6	502
955	186001	2.605	503
955	186349	2.61	504
955	186697	2.615	505
955	187070	2.62	506
955	187443	2.625	507
955	187749	2.63	508
955	188122	2.635	509
955	188470	2.64	510
955	188818	2.645	511
955	189191	2.65	512
955	189564	2.655	513
955	189870	2.66	514
955	190243	2.665	515
955	190591	2.67	516
955	190939	2.675	517
955	191312	2.68	518
955	191685	2.685	519
955	191991	2.69	520
955	192364	2.695	521
955	192731	2.7	522
955	193079	2.705	523
955	193452	2.71	524
955	193825	2.715	525
955	194131	2.72	526
955	194504	2.725	527
955	194852	2.73	528
955	195200	2.735	529
955	195573	2.74	530
955	195946	2.745	531
955	196252	2.75	532
955	196625	2.755	533
955	196973	2.76	534
955	197321	2.765	535
955	197694	2.77	536
955	198067	2.775	537
955	198373	2.78	538
955	198746	2.785	539
955	199094	2.79	540
955	199442	2.795	541
955	199834	2.8	542
955	200207	2.805	543
955	200513	2.81	544
955	200886	2.815	545
955	201234	2.82	546
955	201582	2.825	547
955	201955	2.83	548
955	202328	2.835	549
955	202634	2.84	550
955	203007	2.845	551
955	203355	2.85	552
955	203703	2.855	553
955	204076	2.86	554
955	204449	2.865	555
955	204755	2.87	556
955	205128	2.875	557
955	205476	2.88	558
955	205824	2.885	559
955	206197	2.89	560
955	206570	2.895	561
955	206895	2.9	562
955	207268	2.905	563
955	207616	2.91	564
955	207964	2.915	565
955	208337	2.92	566
955	208710	2.925	567
955	209016	2.93	568
955	209389	2.935	569
955	209737	2.94	570
955	210085	2.945	571
955	210458	2.95	572
955	210831	2.955	573
955	211137	2.96	574
955	211510	2.965	575
955	211858	2.97	576
955	212206	2.975	577
955	212579	2.98	578
955	212952	2.985	579
955	213258	2.99	580
955	213631	2.995	581
955	213998	3	582
955	214346	3.005	583
955	214719	3.01	584
955	215104	3.015	585
955	215427	3.02	586
955	215834	3.025	587
955	216236	3.03	588
955	216609	3.035	589
955	217030	3.04	590
955	217502	3.045	591
955	217904	3.05	592
955	218377	3.055	593
955	218781	3.06	594
955	219159	3.065	595
955	219564	3.07	596
955	220005	3.075	597
955	220390	3.08	598
955	220855	3.085	599
955	221283	3.09	600
955	221683	3.095	601
955	222175	3.1	602
955	222655	3.105	603
955	223079	3.11	604
955	223490	3.115	605
955	223868	3.12	606
955	224246	3.125	607
955	224649	3.13	608
955	225052	3.135	609
955	225388	3.14	610
955	225791	3.145	611
955	226169	3.15	612
955	226547	3.155	613
955	226950	3.16	614
955	227353	3.165	615
955	227689	3.17	616
955	228092	3.175	617
955	228470	3.18	618
955	228849	3.185	619
955	229252	3.19	620
955	229655	3.195	621
955	230009	3.2	622
955	230412	3.205	623
955	230790	3.21	624
967	0	0	1
973	7235	0.096481279186	44
973	221817	3.096481279186	44
976	7235	0.096481279186	45
976	221817	3.096481279186	45
977	7238	0.096481279186	45
977	7641	0.101	47
977	221820	3.096481279186	45
977	222252	3.101	47
978	7517	0.099	0
978	7587	0.1	0
978	8101	0.106	0
978	8103	0.106	0
978	222104	3.099	0
978	222185	3.1	0
978	222755	3.106	0
978	222757	3.106	0
979	7637	0.101	0
979	222248	3.101	0
980	7290	0.097	0
980	7644	0.101	0
980	221874	3.097	0
980	222255	3.101	0
999	0	0	1
1479	994	0.012314120021	7504
1479	214874	3.012314120021	7504
1480	994	0.012314120021	7504
1480	214874	3.012314120021	7504
1482	994	0.012314120021	0
1482	214874	3.012314120021	0
1493	994	0.012314120021	0
1493	214874	3.012314120021	0
1503	1592	0.023785309079	7504
1503	215698	3.023785309079	7504
1504	1592	0.023785309079	7504
1504	215698	3.023785309079	7504
1506	1592	0.023785309079	0
1506	215698	3.023785309079	0
1517	1592	0.023785309079	0
1517	215698	3.023785309079	0
1527	1880	0.027262016546	7504
1527	216067	3.027262016546	7504
1528	1880	0.027262016546	7504
1528	216067	3.027262016546	7504
1530	1880	0.027262016546	0
1530	216067	3.027262016546	0
1541	1880	0.027262016546	0
1541	216067	3.027262016546	0
1551	1923	0.028303043828	7504
1551	216127	3.028303043828	7504
1552	1923	0.028303043828	7504
1552	216127	3.028303043828	7504
1554	1923	0.028303043828	0
1554	216127	3.028303043828	0
1565	1923	0.028303043828	0
1565	216127	3.028303043828	0
1575	2203	0.032193433337	7504
1575	216462	3.032193433337	7504
1576	2203	0.032193433337	7504
1576	216462	3.032193433337	7504
1578	2203	0.032193433337	0
1578	216462	3.032193433337	0
1589	2203	0.032193433337	0
1589	216462	3.032193433337	0
1599	2283	0.034967919982	7504
1599	216575	3.034967919982	7504
1600	2283	0.034967919982	7504
1600	216575	3.034967919982	7504
1602	2283	0.034967919982	0
1602	216575	3.034967919982	0
1613	2283	0.034967919982	0
1613	216575	3.034967919982	0
1623	2496	0.037255783586	7504
1623	216809	3.037255783586	7504
1624	2496	0.037255783586	7504
1624	216809	3.037255783586	7504
1626	2496	0.037255783586	0
1626	216809	3.037255783586	0
1637	2496	0.037255783586	0
1637	216809	3.037255783586	0
1647	2813	0.042654495104	7504
1647	217219	3.042654495104	7504
1648	2813	0.042654495104	7504
1648	217219	3.042654495104	7504
1650	2813	0.042654495104	0
1650	217219	3.042654495104	0
1661	2813	0.042654495104	0
1661	217219	3.042654495104	0
1671	2821	0.042742808261	7504
1671	217226	3.042742808261	7504
1672	2821	0.042742808261	7504
1672	217226	3.042742808261	7504
1674	2821	0.042742808261	0
1674	217226	3.042742808261	0
1685	2821	0.042742808261	0
1685	217226	3.042742808261	0
1695	2928	0.043019576671	7504
1695	217329	3.043019576671	7504
1696	2928	0.043019576671	7504
1696	217329	3.043019576671	7504
1698	2928	0.043019576671	0
1698	217329	3.043019576671	0
1709	2928	0.043019576671	0
1709	217329	3.043019576671	0
1719	3035	0.044464713358	7504
1719	217467	3.044464713358	7504
1720	3035	0.044464713358	7504
1720	217467	3.044464713358	7504
1722	3035	0.044464713358	0
1722	217467	3.044464713358	0
1733	3035	0.044464713358	0
1733	217467	3.044464713358	0
1743	4237	0.058969033093	7504
1743	218639	3.058969033093	7504
1744	4237	0.058969033093	7504
1744	218639	3.058969033093	7504
1746	4237	0.058969033093	0
1746	218639	3.058969033093	0
1757	4237	0.058969033093	0
1757	218639	3.058969033093	0
1767	4635	0.063074826114	7504
1767	219072	3.063074826114	7504
1768	4635	0.063074826114	7504
1768	219072	3.063074826114	7504
1770	4635	0.063074826114	0
1770	219072	3.063074826114	0
1781	4635	0.063074826114	0
1781	219072	3.063074826114	0
1791	4867	0.067512416122	7504
1791	219352	3.067512416122	7504
1792	4867	0.067512416122	7504
1792	219352	3.067512416122	7504
1794	4867	0.067512416122	0
1794	219352	3.067512416122	0
1805	4867	0.067512416122	0
1805	219352	3.067512416122	0
1815	4986	0.068596436554	7504
1815	219478	3.068596436554	7504
1816	4986	0.068596436554	7504
1816	219478	3.068596436554	7504
1818	4986	0.068596436554	0
1818	219478	3.068596436554	0
1829	4986	0.068596436554	0
1829	219478	3.068596436554	0
1839	5122	0.070868452201	7504
1839	219600	3.070868452201	7504
1840	5122	0.070868452201	7504
1840	219600	3.070868452201	7504
1842	5122	0.070868452201	0
1842	219600	3.070868452201	0
1853	5122	0.070868452201	0
1853	219600	3.070868452201	0
1863	5181	0.071731106779	7504
1863	219666	3.071731106779	7504
1864	5181	0.071731106779	7504
1864	219666	3.071731106779	7504
1866	5181	0.071731106779	0
1866	219666	3.071731106779	0
1877	5181	0.071731106779	0
1877	219666	3.071731106779	0
1887	5942	0.080385986073	7504
1887	220498	3.080385986073	7504
1888	5942	0.080385986073	7504
1888	220498	3.080385986073	7504
1890	5942	0.080385986073	0
1890	220498	3.080385986073	0
1901	5942	0.080385986073	0
1901	220498	3.080385986073	0
1911	6485	0.086132885579	7504
1911	221040	3.086132885579	7504
1912	6485	0.086132885579	7504
1912	221040	3.086132885579	7504
1914	6485	0.086132885579	0
1914	221040	3.086132885579	0
1925	6485	0.086132885579	0
1925	221040	3.086132885579	0
1935	6624	0.088660440601	7504
1935	221161	3.088660440601	7504
1936	6624	0.088660440601	7504
1936	221161	3.088660440601	7504
1938	6624	0.088660440601	0
1938	221161	3.088660440601	0
1949	6624	0.088660440601	0
1949	221161	3.088660440601	0
1959	6681	0.089070481334	7504
1959	221225	3.089070481334	7504
1960	6681	0.089070481334	7504
1960	221225	3.089070481334	7504
1962	6681	0.089070481334	0
1962	221225	3.089070481334	0
1973	6681	0.089070481334	0
1973	221225	3.089070481334	0
1983	7089	0.094999797184	7504
1983	221650	3.094999797184	7504
1984	7089	0.094999797184	7504
1984	221650	3.094999797184	7504
1986	7089	0.094999797184	0
1986	221650	3.094999797184	0
1997	7089	0.094999797184	0
1997	221650	3.094999797184	0
2007	7147	0.095104090585	7504
2007	221722	3.095104090585	7504
2008	7147	0.095104090585	7504
2008	221722	3.095104090585	7504
2010	7147	0.095104090585	0
2010	221722	3.095104090585	0
2021	7147	0.095104090585	0
2021	221722	3.095104090585	0
2031	7232	0.096481279186	7504
2031	221814	3.096481279186	7504
2032	7232	0.096481279186	7504
2032	221814	3.096481279186	7504
2034	7232	0.096481279186	0
2034	221814	3.096481279186	0
2045	7232	0.096481279186	0
2045	221814	3.096481279186	0
2055	7529	0.099035166858	7504
2055	222115	3.099035166858	7504
2056	7529	0.099035166858	7504
2056	222115	3.099035166858	7504
2058	7529	0.099035166858	0
2058	222115	3.099035166858	0
2069	7529	0.099035166858	0
2069	222115	3.099035166858	0
