file 1746227 1588968697                                         
version 2
run CAIN-35-20200508-17:08:46-16288
attr configname CAIN
attr datetime 20200508-17:08:46
attr dist 200
attr experiment CAIN
attr inifile omnetpp.ini
attr iterationvars "$numUe=25, $pwr=-50, $dist=200, $mob=\"./movements/RWP-0.5.movements\""
attr iterationvars2 "$numUe=25, $pwr=-50, $dist=200, $mob=\"./movements/RWP-0.5.movements\", $repetition=0"
attr measurement "$numUe=25, $pwr=-50, $dist=200, $mob=\"./movements/RWP-0.5.movements\""
attr mob "\"./movements/RWP-0.5.movements\""
attr network lte.simulations.networks.CAIN
attr numUe 25
attr processid 16288
attr pwr -50
attr repetition 0
attr replication #0
attr resultdir results
attr runnumber 35
attr seedset 0
param **.**.amcMode "\"AUTO\""
param **.amcMode "\"D2D\""
param **.cainNetwork true
param **.channelControl.alpha 1.0
param **.channelControl.carrierFrequency 2100e+6Hz
param **.channelControl.pMax 10W
param **.d2dCqi 7
param **.deployer.numRbDl 50
param **.deployer.numRbUl 50
param **.distThresh ${dist=200}
param **.fbDelay 1
param **.feedbackComputation "xmldoc(\"config_channel.xml\")"
param **.mobility.constraintAreaMaxX 1000m
param **.mobility.constraintAreaMaxY 1000m
param **.mobility.constraintAreaMaxZ 0m
param **.mobility.constraintAreaMinX 0m
param **.mobility.constraintAreaMinY 0m
param **.mobility.constraintAreaMinZ 0m
param **.nic.phy.channelModel "xmldoc(\"config_channel.xml\")"
param **.numBands 50
param **.pwrThresh "${pwr= -50}"
param **.qtdThresh 3
param **.rbAllocationType "\"localized\""
param **.routingRecorder.enabled false
param **.tcpApp[*].tClose -1s
param **.ueD2DTx[*].mobility.changeAngleBy "normal(0deg, 30deg)"
param **.ueD2DTx[*].mobility.changeInterval "normal(5s, 0.1s)"
param **.ueD2DTx[*].mobility.nodeId -1
param **.ueD2DTx[*].mobility.speed "normal(2mps, 0.01mps)"
param **.ueD2DTx[*].mobility.traceFile "${mob=\"./movements/RWP-0.0.movements\",\"./movements/RWP-0.5.movements\",\"./movements/RPGM-0.0.movements\",\"./movements/RPGM-0.5.movements\",\"./movements/RWPRPGM-0.0.movements\",\"./movements/RWPRPGM-0.5.movements\"}"
param **.ueD2DTx[*].mobilityType "\"BonnMotionMobility\""
param **.usePreconfiguredTxParams false
param *.eNodeB*.numX2Apps 1
param *.eNodeB*.x2App[*].server.localPort "5000 + ancestorIndex(1)"
param *.eNodeB.d2dCapable false
param *.eNodeB.mobility.initFromDisplayString false
param *.eNodeB.mobility.initialX 300m
param *.eNodeB.mobility.initialY 300m
param *.eNodeB.nic.phy.enableD2DCqiReporting true
param *.eNodeB.txPower 19952.62315mw
param *.eNodeB.x2App[0].client.connectAddress "\"eNodeB1%x2ppp0\""
param *.eNodeB1.d2dCapable true
param *.eNodeB1.mobility.initFromDisplayString false
param *.eNodeB1.mobility.initialX 700m
param *.eNodeB1.mobility.initialY 300m
param *.eNodeB1.nic.phy.enableD2DCqiReporting true
param *.eNodeB1.txPower 19952.62315mw
param *.eNodeB1.x2App[0].client.connectAddress "\"eNodeB%x2ppp0\""
param *.extCell[*].bandAllocationType "\"FULL_ALLOC\""
param *.extCell[*].bandUtilization 0.5
param *.extCell[*].txDirection "\"ANISOTROPIC\""
param *.extCell[*].txPower 20
param *.extCell[0].position_x 100m
param *.extCell[0].position_y 600m
param *.extCell[0].txAngle 315
param *.extCell[1].position_x 600m
param *.extCell[1].position_y 600m
param *.extCell[1].txAngle 225
param *.numExtCells 2
param *.numUeCell 0
param *.numUeD2DRx 1
param *.numUeD2DTx 1
param *.ue*.macCellId 1
param *.ue*.masterId 1
param *.ue*.mobility.initFromDisplayString false
param *.ue*[0].macCellId 1
param *.ue*[0].masterId 1
param *.ue*[0].mobility.initFromDisplayString false
param *.ueD2D*.numTcpApps 1
param *.ueD2D*[*].d2dCapable true
param *.ueD2D*[0].d2dCapable false
param *.ueD2D*[0].numTcpApps 1
param *.ueD2DRx[0].mobility.initialX 310m
param *.ueD2DRx[0].mobility.initialY 350m
param *.ueD2DRx[0].tcpApp[*].localPort 1000
param *.ueD2DRx[0].tcpApp[*].typename "\"TCPSinkApp\""
param *.ueD2DTx*.nic.d2dPeerAddresses "\"ueD2DTx[1]\""
param *.ueD2DTx*.tcpApp[*].connectAddress "\"ueD2DTx[0]\""
param *.ueD2DTx*.tcpApp[*].localAddress "\"ueD2DTx\""
param *.ueD2DTx*.tcpApp[*].localPort 1000
param *.ueD2DTx*.tcpApp[*].sendBytes 1GiB
param *.ueD2DTx*.tcpApp[*].typename "\"TCPSessionApp\""
param *.ueD2DTx*.tcpApp[0].active true
param *.ueD2DTx*.tcpApp[0].connectPort 1000
param *.ueD2DTx*.tcpApp[0].tOpen uniform(0.010s,0.1s)
param *.ueD2DTx*.tcpApp[0].tSend uniform(0.15s,0.5s)
param *.ueD2DTx[0].mobility.initialX 290m
param *.ueD2DTx[0].mobility.initialY 350m
param *.ueD2DTx[0].tcpApp[*].localPort 1000
param *.ueD2DTx[0].tcpApp[*].sendBytes 1GiB
param *.ueD2DTx[0].tcpApp[*].typename "\"TCPSessionApp\""
param *.ueD2DTx[0].tcpApp[0].active true
param *.ueD2DTx[0].tcpApp[0].connectAddress "\"ueD2DRx[0]\""
param *.ueD2DTx[0].tcpApp[0].connectPort 1000
param *.ueD2DTx[0].tcpApp[0].localAddress "\"ueD2DTx[0]\""
param *.ueD2DTx[0].tcpApp[0].tOpen uniform(0.010s,0.1s)
param *.ueD2DTx[0].tcpApp[0].tSend uniform(0.15s,0.5s)
param *.ueD2DTx[1].mobility.initialX 690m
param *.ueD2DTx[1].mobility.initialY 250m

vector 8  CAIN.server.ppp[0].queue  queueLength:vector  ETV
attr interpolationmode  sample-hold
attr title  "queue length, vector"
vector 9  CAIN.server.ppp[0].ppp  txState:vector  ETV
attr interpolationmode  sample-hold
attr title  "tx state, vector"
vector 24  CAIN.router.ppp[0].queue  queueLength:vector  ETV
attr interpolationmode  sample-hold
attr title  "queue length, vector"
vector 25  CAIN.router.ppp[0].ppp  txState:vector  ETV
attr interpolationmode  sample-hold
attr title  "tx state, vector"
vector 35  CAIN.router.ppp[1].queue  queueLength:vector  ETV
attr interpolationmode  sample-hold
attr title  "queue length, vector"
vector 36  CAIN.router.ppp[1].ppp  txState:vector  ETV
attr interpolationmode  sample-hold
attr title  "tx state, vector"
vector 56  CAIN.pgw.ppp[0].queue  queueLength:vector  ETV
attr interpolationmode  sample-hold
attr title  "queue length, vector"
vector 57  CAIN.pgw.ppp[0].ppp  txState:vector  ETV
attr interpolationmode  sample-hold
attr title  "tx state, vector"
vector 67  CAIN.pgw.ppp[1].queue  queueLength:vector  ETV
attr interpolationmode  sample-hold
attr title  "queue length, vector"
vector 68  CAIN.pgw.ppp[1].ppp  txState:vector  ETV
attr interpolationmode  sample-hold
attr title  "tx state, vector"
vector 78  CAIN.pgw.pppInterface.queue  queueLength:vector  ETV
attr interpolationmode  sample-hold
attr title  "queue length, vector"
vector 79  CAIN.pgw.pppInterface.ppp  txState:vector  ETV
attr interpolationmode  sample-hold
attr title  "tx state, vector"
vector 120  CAIN.eNodeB.pppIf.queue  queueLength:vector  ETV
attr interpolationmode  sample-hold
attr title  "queue length, vector"
vector 121  CAIN.eNodeB.pppIf.ppp  txState:vector  ETV
attr interpolationmode  sample-hold
attr title  "tx state, vector"
vector 131  CAIN.eNodeB.x2ppp[0].queue  queueLength:vector  ETV
attr interpolationmode  sample-hold
attr title  "queue length, vector"
vector 132  CAIN.eNodeB.x2ppp[0].ppp  txState:vector  ETV
attr interpolationmode  sample-hold
attr title  "tx state, vector"
vector 178  CAIN.eNodeB1.pppIf.queue  queueLength:vector  ETV
attr interpolationmode  sample-hold
attr title  "queue length, vector"
vector 179  CAIN.eNodeB1.pppIf.ppp  txState:vector  ETV
attr interpolationmode  sample-hold
attr title  "tx state, vector"
vector 189  CAIN.eNodeB1.x2ppp[0].queue  queueLength:vector  ETV
attr interpolationmode  sample-hold
attr title  "queue length, vector"
vector 190  CAIN.eNodeB1.x2ppp[0].ppp  txState:vector  ETV
attr interpolationmode  sample-hold
attr title  "tx state, vector"
vector 231  CAIN.ueD2DTx[0].nic.phy  servingCell:vector  ETV
attr source  servingCell
attr title  "ID of the serving eNodeB for the UE, vector"
attr unit  ""
vector 263  CAIN.ueD2DTx[1].nic.phy  servingCell:vector  ETV
attr source  servingCell
attr title  "ID of the serving eNodeB for the UE, vector"
attr unit  ""
vector 295  CAIN.ueD2DTx[2].nic.phy  servingCell:vector  ETV
attr source  servingCell
attr title  "ID of the serving eNodeB for the UE, vector"
attr unit  ""
vector 327  CAIN.ueD2DTx[3].nic.phy  servingCell:vector  ETV
attr source  servingCell
attr title  "ID of the serving eNodeB for the UE, vector"
attr unit  ""
vector 359  CAIN.ueD2DTx[4].nic.phy  servingCell:vector  ETV
attr source  servingCell
attr title  "ID of the serving eNodeB for the UE, vector"
attr unit  ""
vector 391  CAIN.ueD2DTx[5].nic.phy  servingCell:vector  ETV
attr source  servingCell
attr title  "ID of the serving eNodeB for the UE, vector"
attr unit  ""
vector 423  CAIN.ueD2DTx[6].nic.phy  servingCell:vector  ETV
attr source  servingCell
attr title  "ID of the serving eNodeB for the UE, vector"
attr unit  ""
vector 455  CAIN.ueD2DTx[7].nic.phy  servingCell:vector  ETV
attr source  servingCell
attr title  "ID of the serving eNodeB for the UE, vector"
attr unit  ""
vector 487  CAIN.ueD2DTx[8].nic.phy  servingCell:vector  ETV
attr source  servingCell
attr title  "ID of the serving eNodeB for the UE, vector"
attr unit  ""
vector 519  CAIN.ueD2DTx[9].nic.phy  servingCell:vector  ETV
attr source  servingCell
attr title  "ID of the serving eNodeB for the UE, vector"
attr unit  ""
vector 551  CAIN.ueD2DTx[10].nic.phy  servingCell:vector  ETV
attr source  servingCell
attr title  "ID of the serving eNodeB for the UE, vector"
attr unit  ""
vector 583  CAIN.ueD2DTx[11].nic.phy  servingCell:vector  ETV
attr source  servingCell
attr title  "ID of the serving eNodeB for the UE, vector"
attr unit  ""
vector 615  CAIN.ueD2DTx[12].nic.phy  servingCell:vector  ETV
attr source  servingCell
attr title  "ID of the serving eNodeB for the UE, vector"
attr unit  ""
vector 647  CAIN.ueD2DTx[13].nic.phy  servingCell:vector  ETV
attr source  servingCell
attr title  "ID of the serving eNodeB for the UE, vector"
attr unit  ""
vector 679  CAIN.ueD2DTx[14].nic.phy  servingCell:vector  ETV
attr source  servingCell
attr title  "ID of the serving eNodeB for the UE, vector"
attr unit  ""
vector 711  CAIN.ueD2DTx[15].nic.phy  servingCell:vector  ETV
attr source  servingCell
attr title  "ID of the serving eNodeB for the UE, vector"
attr unit  ""
vector 743  CAIN.ueD2DTx[16].nic.phy  servingCell:vector  ETV
attr source  servingCell
attr title  "ID of the serving eNodeB for the UE, vector"
attr unit  ""
vector 775  CAIN.ueD2DTx[17].nic.phy  servingCell:vector  ETV
attr source  servingCell
attr title  "ID of the serving eNodeB for the UE, vector"
attr unit  ""
vector 807  CAIN.ueD2DTx[18].nic.phy  servingCell:vector  ETV
attr source  servingCell
attr title  "ID of the serving eNodeB for the UE, vector"
attr unit  ""
vector 839  CAIN.ueD2DTx[19].nic.phy  servingCell:vector  ETV
attr source  servingCell
attr title  "ID of the serving eNodeB for the UE, vector"
attr unit  ""
vector 871  CAIN.ueD2DTx[20].nic.phy  servingCell:vector  ETV
attr source  servingCell
attr title  "ID of the serving eNodeB for the UE, vector"
attr unit  ""
vector 903  CAIN.ueD2DTx[21].nic.phy  servingCell:vector  ETV
attr source  servingCell
attr title  "ID of the serving eNodeB for the UE, vector"
attr unit  ""
vector 935  CAIN.ueD2DTx[22].nic.phy  servingCell:vector  ETV
attr source  servingCell
attr title  "ID of the serving eNodeB for the UE, vector"
attr unit  ""
vector 967  CAIN.ueD2DTx[23].nic.phy  servingCell:vector  ETV
attr source  servingCell
attr title  "ID of the serving eNodeB for the UE, vector"
attr unit  ""
vector 999  CAIN.ueD2DTx[24].nic.phy  servingCell:vector  ETV
attr source  servingCell
attr title  "ID of the serving eNodeB for the UE, vector"
attr unit  ""
vector 1023  CAIN.eNodeB.sctp  "Throughput of Association 3"  ETV
vector 1045  CAIN.eNodeB1.sctp  "Throughput of Association 4"  ETV
vector 1067  CAIN.eNodeB.sctp  "Throughput of Association 1"  ETV
vector 1087  CAIN.eNodeB.sctp  "Fast Recovery State 1:10.0.5.2"  ETV
vector 1116  CAIN.eNodeB1.sctp  "Throughput of Association 2"  ETV
vector 1136  CAIN.eNodeB1.sctp  "Fast Recovery State 2:10.0.5.1"  ETV
vector 128  CAIN.eNodeB.x2ppp[0].queue  rcvdPk:vector(packetBytes)  ETV
attr interpolationmode  none
attr title  "received packets, vector(packetBytes)"
vector 130  CAIN.eNodeB.x2ppp[0].queue  queueingTime:vector  ETV
attr interpolationmode  none
attr title  "queueing time, vector"
vector 186  CAIN.eNodeB1.x2ppp[0].queue  rcvdPk:vector(packetBytes)  ETV
attr interpolationmode  none
attr title  "received packets, vector(packetBytes)"
vector 188  CAIN.eNodeB1.x2ppp[0].queue  queueingTime:vector  ETV
attr interpolationmode  none
attr title  "queueing time, vector"
vector 137  CAIN.eNodeB.x2ppp[0].ppp  rcvdPkFromHL:vector(packetBytes)  ETV
attr interpolationmode  none
attr source  packetReceivedFromUpper
attr title  "packets received from higher layer, vector(packetBytes)"
vector 133  CAIN.eNodeB.x2ppp[0].ppp  txPk:vector(packetBytes)  ETV
attr interpolationmode  none
attr source  packetSentToLower
attr title  "packets transmitted, vector(packetBytes)"
vector 195  CAIN.eNodeB1.x2ppp[0].ppp  rcvdPkFromHL:vector(packetBytes)  ETV
attr interpolationmode  none
attr source  packetReceivedFromUpper
attr title  "packets received from higher layer, vector(packetBytes)"
vector 191  CAIN.eNodeB1.x2ppp[0].ppp  txPk:vector(packetBytes)  ETV
attr interpolationmode  none
attr source  packetSentToLower
attr title  "packets transmitted, vector(packetBytes)"
vector 192  CAIN.eNodeB1.x2ppp[0].ppp  rxPkOk:vector(packetBytes)  ETV
attr interpolationmode  none
attr source  rxPkOk
attr title  "packets received OK, vector(packetBytes)"
vector 196  CAIN.eNodeB1.x2ppp[0].ppp  passedUpPk:vector(packetBytes)  ETV
attr interpolationmode  none
attr source  packetSentToUpper
attr title  "packets passed to higher layer, vector(packetBytes)"
vector 134  CAIN.eNodeB.x2ppp[0].ppp  rxPkOk:vector(packetBytes)  ETV
attr interpolationmode  none
attr source  rxPkOk
attr title  "packets received OK, vector(packetBytes)"
vector 138  CAIN.eNodeB.x2ppp[0].ppp  passedUpPk:vector(packetBytes)  ETV
attr interpolationmode  none
attr source  packetSentToUpper
attr title  "packets passed to higher layer, vector(packetBytes)"
vector 1165  CAIN.eNodeB1.sctp  "Throughput of Association 4"  ETV
vector 1042  CAIN.eNodeB1.sctp  "Peer Rwnd 4"  ETV
vector 1185  CAIN.eNodeB1.sctp  "Fast Recovery State 5:10.0.4.1"  ETV
vector 1212  CAIN.eNodeB1.sctp  "Fast Recovery State 5:10.0.2.2"  ETV
vector 1239  CAIN.eNodeB1.sctp  "Fast Recovery State 5:10.0.5.1"  ETV
vector 1268  CAIN.eNodeB.sctp  "Throughput of Association 3"  ETV
vector 1020  CAIN.eNodeB.sctp  "Peer Rwnd 3"  ETV
vector 1288  CAIN.eNodeB.sctp  "Fast Recovery State 6:10.0.4.2"  ETV
vector 1315  CAIN.eNodeB.sctp  "Fast Recovery State 6:10.0.3.2"  ETV
vector 1342  CAIN.eNodeB.sctp  "Fast Recovery State 6:10.0.5.2"  ETV
vector 1064  CAIN.eNodeB.sctp  "Peer Rwnd 1"  ETV
vector 1369  CAIN.eNodeB.sctp  "Fast Recovery State 1:10.0.4.2"  ETV
vector 1396  CAIN.eNodeB.sctp  "Fast Recovery State 1:10.0.3.2"  ETV
vector 1113  CAIN.eNodeB1.sctp  "Peer Rwnd 2"  ETV
vector 1423  CAIN.eNodeB1.sctp  "Fast Recovery State 2:10.0.4.1"  ETV
vector 1450  CAIN.eNodeB1.sctp  "Fast Recovery State 2:10.0.2.2"  ETV
vector 1195  CAIN.eNodeB1.sctp  "Slow Start Threshold 5:10.0.2.2"  ETV
vector 1196  CAIN.eNodeB1.sctp  "Congestion Window 5:10.0.2.2"  ETV
vector 1197  CAIN.eNodeB1.sctp  "Bandwidth 5:10.0.2.2"  ETV
vector 1200  CAIN.eNodeB1.sctp  "HB Sent 5:10.0.2.2"  ETV
vector 1193  CAIN.eNodeB1.sctp  "RTO 5:10.0.2.2"  ETV
vector 1168  CAIN.eNodeB1.sctp  "Slow Start Threshold 5:10.0.4.1"  ETV
vector 1169  CAIN.eNodeB1.sctp  "Congestion Window 5:10.0.4.1"  ETV
vector 1170  CAIN.eNodeB1.sctp  "Bandwidth 5:10.0.4.1"  ETV
vector 1173  CAIN.eNodeB1.sctp  "HB Sent 5:10.0.4.1"  ETV
vector 1166  CAIN.eNodeB1.sctp  "RTO 5:10.0.4.1"  ETV
vector 1222  CAIN.eNodeB1.sctp  "Slow Start Threshold 5:10.0.5.1"  ETV
vector 1223  CAIN.eNodeB1.sctp  "Congestion Window 5:10.0.5.1"  ETV
vector 1224  CAIN.eNodeB1.sctp  "Bandwidth 5:10.0.5.1"  ETV
vector 1220  CAIN.eNodeB1.sctp  "RTO 5:10.0.5.1"  ETV
vector 1298  CAIN.eNodeB.sctp  "Slow Start Threshold 6:10.0.3.2"  ETV
vector 1299  CAIN.eNodeB.sctp  "Congestion Window 6:10.0.3.2"  ETV
vector 1300  CAIN.eNodeB.sctp  "Bandwidth 6:10.0.3.2"  ETV
vector 1303  CAIN.eNodeB.sctp  "HB Sent 6:10.0.3.2"  ETV
vector 1296  CAIN.eNodeB.sctp  "RTO 6:10.0.3.2"  ETV
vector 1271  CAIN.eNodeB.sctp  "Slow Start Threshold 6:10.0.4.2"  ETV
vector 1272  CAIN.eNodeB.sctp  "Congestion Window 6:10.0.4.2"  ETV
vector 1273  CAIN.eNodeB.sctp  "Bandwidth 6:10.0.4.2"  ETV
vector 1276  CAIN.eNodeB.sctp  "HB Sent 6:10.0.4.2"  ETV
vector 1269  CAIN.eNodeB.sctp  "RTO 6:10.0.4.2"  ETV
vector 1325  CAIN.eNodeB.sctp  "Slow Start Threshold 6:10.0.5.2"  ETV
vector 1326  CAIN.eNodeB.sctp  "Congestion Window 6:10.0.5.2"  ETV
vector 1327  CAIN.eNodeB.sctp  "Bandwidth 6:10.0.5.2"  ETV
vector 1323  CAIN.eNodeB.sctp  "RTO 6:10.0.5.2"  ETV
vector 1076  CAIN.eNodeB.sctp  "HB ACK Sent 1:10.0.5.2"  ETV
vector 1077  CAIN.eNodeB.sctp  "HB Received 1:10.0.5.2"  ETV
vector 1125  CAIN.eNodeB1.sctp  "HB ACK Sent 2:10.0.5.1"  ETV
vector 1126  CAIN.eNodeB1.sctp  "HB Received 2:10.0.5.1"  ETV
vector 1379  CAIN.eNodeB.sctp  "Slow Start Threshold 1:10.0.3.2"  ETV
vector 1380  CAIN.eNodeB.sctp  "Congestion Window 1:10.0.3.2"  ETV
vector 1381  CAIN.eNodeB.sctp  "Bandwidth 1:10.0.3.2"  ETV
vector 1384  CAIN.eNodeB.sctp  "HB Sent 1:10.0.3.2"  ETV
vector 1377  CAIN.eNodeB.sctp  "RTO 1:10.0.3.2"  ETV
vector 1352  CAIN.eNodeB.sctp  "Slow Start Threshold 1:10.0.4.2"  ETV
vector 1353  CAIN.eNodeB.sctp  "Congestion Window 1:10.0.4.2"  ETV
vector 1354  CAIN.eNodeB.sctp  "Bandwidth 1:10.0.4.2"  ETV
vector 1357  CAIN.eNodeB.sctp  "HB Sent 1:10.0.4.2"  ETV
vector 1350  CAIN.eNodeB.sctp  "RTO 1:10.0.4.2"  ETV
vector 1070  CAIN.eNodeB.sctp  "Slow Start Threshold 1:10.0.5.2"  ETV
vector 1071  CAIN.eNodeB.sctp  "Congestion Window 1:10.0.5.2"  ETV
vector 1072  CAIN.eNodeB.sctp  "Bandwidth 1:10.0.5.2"  ETV
vector 1068  CAIN.eNodeB.sctp  "RTO 1:10.0.5.2"  ETV
vector 1433  CAIN.eNodeB1.sctp  "Slow Start Threshold 2:10.0.2.2"  ETV
vector 1434  CAIN.eNodeB1.sctp  "Congestion Window 2:10.0.2.2"  ETV
vector 1435  CAIN.eNodeB1.sctp  "Bandwidth 2:10.0.2.2"  ETV
vector 1438  CAIN.eNodeB1.sctp  "HB Sent 2:10.0.2.2"  ETV
vector 1431  CAIN.eNodeB1.sctp  "RTO 2:10.0.2.2"  ETV
vector 1406  CAIN.eNodeB1.sctp  "Slow Start Threshold 2:10.0.4.1"  ETV
vector 1407  CAIN.eNodeB1.sctp  "Congestion Window 2:10.0.4.1"  ETV
vector 1408  CAIN.eNodeB1.sctp  "Bandwidth 2:10.0.4.1"  ETV
vector 1411  CAIN.eNodeB1.sctp  "HB Sent 2:10.0.4.1"  ETV
vector 1404  CAIN.eNodeB1.sctp  "RTO 2:10.0.4.1"  ETV
vector 1119  CAIN.eNodeB1.sctp  "Slow Start Threshold 2:10.0.5.1"  ETV
vector 1120  CAIN.eNodeB1.sctp  "Congestion Window 2:10.0.5.1"  ETV
vector 1121  CAIN.eNodeB1.sctp  "Bandwidth 2:10.0.5.1"  ETV
vector 1117  CAIN.eNodeB1.sctp  "RTO 2:10.0.5.1"  ETV
vector 1333  CAIN.eNodeB.sctp  "HB ACK Received 6:10.0.5.2"  ETV
vector 1324  CAIN.eNodeB.sctp  "RTT 6:10.0.5.2"  ETV
vector 1230  CAIN.eNodeB1.sctp  "HB ACK Received 5:10.0.5.1"  ETV
vector 1221  CAIN.eNodeB1.sctp  "RTT 5:10.0.5.1"  ETV
vector 1331  CAIN.eNodeB.sctp  "HB ACK Sent 6:10.0.5.2"  ETV
vector 1332  CAIN.eNodeB.sctp  "HB Received 6:10.0.5.2"  ETV
vector 1228  CAIN.eNodeB1.sctp  "HB ACK Sent 5:10.0.5.1"  ETV
vector 1229  CAIN.eNodeB1.sctp  "HB Received 5:10.0.5.1"  ETV
vector 1127  CAIN.eNodeB1.sctp  "HB ACK Received 2:10.0.5.1"  ETV
vector 1118  CAIN.eNodeB1.sctp  "RTT 2:10.0.5.1"  ETV
vector 1078  CAIN.eNodeB.sctp  "HB ACK Received 1:10.0.5.2"  ETV
vector 1069  CAIN.eNodeB.sctp  "RTT 1:10.0.5.2"  ETV
vector 96  CAIN.eNodeB.nic.mac  receivedPacketFromLowerLayer:vector(packetBytes)  ETV
attr interpolationmode  none
attr source  receivedPacketFromLowerLayer
vector 1465  CAIN.eNodeB.sctp  "SendQueue of Association 6"  ETV
vector 1328  CAIN.eNodeB.sctp  "TSN Sent 6:10.0.5.2"  ETV
vector 1335  CAIN.eNodeB.sctp  "Outstanding Bytes 6:10.0.5.2"  ETV
vector 1008  CAIN.eNodeB.sctp  "Outstanding Bytes 3:Total"  ETV
vector 1334  CAIN.eNodeB.sctp  "Queued Sent Bytes 6:10.0.5.2"  ETV
vector 1007  CAIN.eNodeB.sctp  "Queued Sent Bytes 3:Total"  ETV
vector 1123  CAIN.eNodeB1.sctp  "TSN Received 2:10.0.5.1"  ETV
vector 1099  CAIN.eNodeB1.sctp  "Queued Received Bytes 2:Total"  ETV
vector 1095  CAIN.eNodeB1.sctp  "Advertised Receiver Window 2"  ETV
vector 1104  CAIN.eNodeB1.sctp  "Number of Total Gap Blocks Stored 2"  ETV
vector 1105  CAIN.eNodeB1.sctp  "Number of Revokable Gap Blocks Stored 2"  ETV
vector 1106  CAIN.eNodeB1.sctp  "Number of Non-Revokable Gap Blocks Stored 2"  ETV
vector 1107  CAIN.eNodeB1.sctp  "Number of Duplicate TSNs Stored 2"  ETV
vector 1111  CAIN.eNodeB1.sctp  "Length of SACK Sent 2"  ETV
vector 1108  CAIN.eNodeB1.sctp  "Number of Revokable Gap Blocks Sent 2"  ETV
vector 1109  CAIN.eNodeB1.sctp  "Number of Non-Revokable Gap Blocks Sent 2"  ETV
vector 1110  CAIN.eNodeB1.sctp  "Number of Duplicate TSNs Sent 2"  ETV
vector 1115  CAIN.eNodeB1.sctp  "End to End Delay of Association 2"  ETV
vector 199  CAIN.eNodeB1.x2App[0].client  rcvdPk:vector(packetBytes)  ETV
attr interpolationmode  none
attr source  rcvdPk
attr title  "packets received, vector(packetBytes)"
vector 1464  CAIN.eNodeB.sctp  "Number of Gap Blocks in Last SACK of Association 6"  ETV
vector 1009  CAIN.eNodeB.sctp  "Number of Revokable Gap Blocks in SACK 3"  ETV
vector 1010  CAIN.eNodeB.sctp  "Number of Non-Revokable Gap Blocks in SACK 3"  ETV
vector 1345  CAIN.eNodeB.sctp  "TSN Acked CumAck 6:10.0.5.2"  ETV
vector 1311  CAIN.eNodeB.sctp  "Number of Gap Acked Chunks in Last SACK 6:10.0.3.2"  ETV
vector 1312  CAIN.eNodeB.sctp  "Number of Non-Revokable Gap Acked Chunks in Last SACK 6:10.0.3.2"  ETV
vector 1313  CAIN.eNodeB.sctp  "Number of Gap Missed Chunks in Last SACK 6:10.0.3.2"  ETV
vector 1284  CAIN.eNodeB.sctp  "Number of Gap Acked Chunks in Last SACK 6:10.0.4.2"  ETV
vector 1285  CAIN.eNodeB.sctp  "Number of Non-Revokable Gap Acked Chunks in Last SACK 6:10.0.4.2"  ETV
vector 1286  CAIN.eNodeB.sctp  "Number of Gap Missed Chunks in Last SACK 6:10.0.4.2"  ETV
vector 1338  CAIN.eNodeB.sctp  "Number of Gap Acked Chunks in Last SACK 6:10.0.5.2"  ETV
vector 1339  CAIN.eNodeB.sctp  "Number of Non-Revokable Gap Acked Chunks in Last SACK 6:10.0.5.2"  ETV
vector 1340  CAIN.eNodeB.sctp  "Number of Gap Missed Chunks in Last SACK 6:10.0.5.2"  ETV
vector 1019  CAIN.eNodeB.sctp  "Arwnd in Last SACK 3"  ETV
vector 1347  CAIN.eNodeB.sctp  "TSN PseudoCumAck 6:10.0.5.2"  ETV
vector 1348  CAIN.eNodeB.sctp  "TSN RTXPseudoCumAck 6:10.0.5.2"  ETV
vector 1341  CAIN.eNodeB.sctp  "Partial Bytes Acked 6:10.0.5.2"  ETV
vector 1493  CAIN.ueD2DTx[13].tcp  tcpRcvQueueBytes  ETV
vector 1480  CAIN.ueD2DTx[13].tcp  "advertised window"  ETV
vector 1479  CAIN.ueD2DTx[13].tcp  "receive window"  ETV
vector 1482  CAIN.ueD2DTx[13].tcp  "sent ack"  ETV
vector 621  CAIN.ueD2DTx[13].nic.pdcpRrc  receivedPacketFromUpperLayer:vector(packetBytes)  ETV
attr interpolationmode  none
attr source  receivedPacketFromUpperLayer
vector 624  CAIN.ueD2DTx[13].nic.pdcpRrc  sentPacketToLowerLayer:vector(packetBytes)  ETV
attr interpolationmode  none
attr source  sentPacketToLowerLayer
vector 625  CAIN.ueD2DTx[13].nic.mac  receivedPacketFromUpperLayer:vector(packetBytes)  ETV
attr interpolationmode  none
attr source  receivedPacketFromUpperLayer
vector 628  CAIN.ueD2DTx[13].nic.mac  sentPacketToLowerLayer:vector(packetBytes)  ETV
attr interpolationmode  none
attr source  sentPacketToLowerLayer
vector 1517  CAIN.ueD2DTx[19].tcp  tcpRcvQueueBytes  ETV
vector 1504  CAIN.ueD2DTx[19].tcp  "advertised window"  ETV
vector 1503  CAIN.ueD2DTx[19].tcp  "receive window"  ETV
vector 1506  CAIN.ueD2DTx[19].tcp  "sent ack"  ETV
vector 813  CAIN.ueD2DTx[19].nic.pdcpRrc  receivedPacketFromUpperLayer:vector(packetBytes)  ETV
attr interpolationmode  none
attr source  receivedPacketFromUpperLayer
vector 816  CAIN.ueD2DTx[19].nic.pdcpRrc  sentPacketToLowerLayer:vector(packetBytes)  ETV
attr interpolationmode  none
attr source  sentPacketToLowerLayer
vector 817  CAIN.ueD2DTx[19].nic.mac  receivedPacketFromUpperLayer:vector(packetBytes)  ETV
attr interpolationmode  none
attr source  receivedPacketFromUpperLayer
vector 1541  CAIN.ueD2DTx[12].tcp  tcpRcvQueueBytes  ETV
vector 1528  CAIN.ueD2DTx[12].tcp  "advertised window"  ETV
vector 1527  CAIN.ueD2DTx[12].tcp  "receive window"  ETV
vector 1530  CAIN.ueD2DTx[12].tcp  "sent ack"  ETV
vector 589  CAIN.ueD2DTx[12].nic.pdcpRrc  receivedPacketFromUpperLayer:vector(packetBytes)  ETV
attr interpolationmode  none
attr source  receivedPacketFromUpperLayer
vector 592  CAIN.ueD2DTx[12].nic.pdcpRrc  sentPacketToLowerLayer:vector(packetBytes)  ETV
attr interpolationmode  none
attr source  sentPacketToLowerLayer
vector 593  CAIN.ueD2DTx[12].nic.mac  receivedPacketFromUpperLayer:vector(packetBytes)  ETV
attr interpolationmode  none
attr source  receivedPacketFromUpperLayer
vector 602  CAIN.ueD2DTx[12].nic.mac  CainMessageSent:vector  ETV
attr interpolationmode  none
attr title  "# of Sent CAIN message, vector"
vector 596  CAIN.ueD2DTx[12].nic.mac  sentPacketToLowerLayer:vector(packetBytes)  ETV
attr interpolationmode  none
attr source  sentPacketToLowerLayer
vector 827  CAIN.ueD2DTx[19].nic.mac  CainHopMessageSent:vector  ETV
attr interpolationmode  none
attr title  "# of Sent CAIN hop message, vector"
vector 820  CAIN.ueD2DTx[19].nic.mac  sentPacketToLowerLayer:vector(packetBytes)  ETV
attr interpolationmode  none
attr source  sentPacketToLowerLayer
vector 111  CAIN.eNodeB.nic.mac  racpkt:vector  ETV
attr interpolationmode  none
attr title  "eNB received racpkt message, vector"
vector 112  CAIN.eNodeB.nic.mac  racDistanceSignal:vector  ETV
attr interpolationmode  none
attr title  "Rac distance to enb, vector"
vector 113  CAIN.eNodeB.nic.mac  racServedDevsSignal:vector  ETV
attr interpolationmode  none
attr title  "# of devices served on rac arriavall, vector"
vector 98  CAIN.eNodeB.nic.mac  sentPacketToLowerLayer:vector(packetBytes)  ETV
attr interpolationmode  none
attr source  sentPacketToLowerLayer
vector 786  CAIN.ueD2DTx[18].nic.mac  receivedPacketFromLowerLayer:vector(packetBytes)  ETV
attr interpolationmode  none
attr source  receivedPacketFromLowerLayer
vector 788  CAIN.ueD2DTx[18].nic.mac  sentPacketToLowerLayer:vector(packetBytes)  ETV
attr interpolationmode  none
attr source  sentPacketToLowerLayer
vector 434  CAIN.ueD2DTx[7].nic.mac  receivedPacketFromLowerLayer:vector(packetBytes)  ETV
attr interpolationmode  none
attr source  receivedPacketFromLowerLayer
vector 436  CAIN.ueD2DTx[7].nic.mac  sentPacketToLowerLayer:vector(packetBytes)  ETV
attr interpolationmode  none
attr source  sentPacketToLowerLayer
vector 626  CAIN.ueD2DTx[13].nic.mac  receivedPacketFromLowerLayer:vector(packetBytes)  ETV
attr interpolationmode  none
attr source  receivedPacketFromLowerLayer
vector 106  CAIN.eNodeB.nic.mac  DistanceSignal:vector  ETV
attr interpolationmode  none
attr title  "Distance to enb, vector"
vector 100  CAIN.eNodeB.nic.mac  CainMessage:vector  ETV
attr interpolationmode  none
attr title  "eNB received CAIN message, vector"
vector 627  CAIN.ueD2DTx[13].nic.mac  sentPacketToUpperLayer:vector(packetBytes)  ETV
attr interpolationmode  none
attr source  sentPacketToUpperLayer
vector 792  CAIN.ueD2DTx[18].nic.mac  DropedCainMessage:vector  ETV
attr interpolationmode  none
attr title  "Droped CAIN message due to RB not available, vector"
vector 101  CAIN.eNodeB.nic.mac  CainHopMessage:vector  ETV
attr interpolationmode  none
attr title  "eNB received CAIN hop message, vector"
vector 115  CAIN.eNodeB.nic.phy  averageCqiUlvect:vector  ETV
attr source  averageCqiUlvect
attr title  "Average Cqi reported in UL, vector"
attr unit  cqi
vector 793  CAIN.ueD2DTx[18].nic.mac  DropedHopMessage:vector  ETV
attr interpolationmode  none
attr title  "Droped Hop CAIN message due to RB not available, vector"
vector 97  CAIN.eNodeB.nic.mac  sentPacketToUpperLayer:vector(packetBytes)  ETV
attr interpolationmode  none
attr source  sentPacketToUpperLayer
vector 99  CAIN.eNodeB.nic.mac  measuredItbs:vector  ETV
attr source  measuredItbs
attr title  "TBS index, vector"
attr unit  ""
vector 1565  CAIN.ueD2DTx[11].tcp  tcpRcvQueueBytes  ETV
vector 1552  CAIN.ueD2DTx[11].tcp  "advertised window"  ETV
vector 1551  CAIN.ueD2DTx[11].tcp  "receive window"  ETV
vector 1554  CAIN.ueD2DTx[11].tcp  "sent ack"  ETV
vector 557  CAIN.ueD2DTx[11].nic.pdcpRrc  receivedPacketFromUpperLayer:vector(packetBytes)  ETV
attr interpolationmode  none
attr source  receivedPacketFromUpperLayer
vector 560  CAIN.ueD2DTx[11].nic.pdcpRrc  sentPacketToLowerLayer:vector(packetBytes)  ETV
attr interpolationmode  none
attr source  sentPacketToLowerLayer
vector 561  CAIN.ueD2DTx[11].nic.mac  receivedPacketFromUpperLayer:vector(packetBytes)  ETV
attr interpolationmode  none
attr source  receivedPacketFromUpperLayer
vector 571  CAIN.ueD2DTx[11].nic.mac  CainHopMessageSent:vector  ETV
attr interpolationmode  none
attr title  "# of Sent CAIN hop message, vector"
vector 564  CAIN.ueD2DTx[11].nic.mac  sentPacketToLowerLayer:vector(packetBytes)  ETV
attr interpolationmode  none
attr source  sentPacketToLowerLayer
vector 978  CAIN.ueD2DTx[24].nic.mac  receivedPacketFromLowerLayer:vector(packetBytes)  ETV
attr interpolationmode  none
attr source  receivedPacketFromLowerLayer
vector 980  CAIN.ueD2DTx[24].nic.mac  sentPacketToLowerLayer:vector(packetBytes)  ETV
attr interpolationmode  none
attr source  sentPacketToLowerLayer
vector 722  CAIN.ueD2DTx[16].nic.mac  receivedPacketFromLowerLayer:vector(packetBytes)  ETV
attr interpolationmode  none
attr source  receivedPacketFromLowerLayer
vector 724  CAIN.ueD2DTx[16].nic.mac  sentPacketToLowerLayer:vector(packetBytes)  ETV
attr interpolationmode  none
attr source  sentPacketToLowerLayer
vector 1589  CAIN.ueD2DTx[7].tcp  tcpRcvQueueBytes  ETV
vector 1576  CAIN.ueD2DTx[7].tcp  "advertised window"  ETV
vector 1575  CAIN.ueD2DTx[7].tcp  "receive window"  ETV
vector 1578  CAIN.ueD2DTx[7].tcp  "sent ack"  ETV
vector 429  CAIN.ueD2DTx[7].nic.pdcpRrc  receivedPacketFromUpperLayer:vector(packetBytes)  ETV
attr interpolationmode  none
attr source  receivedPacketFromUpperLayer
vector 432  CAIN.ueD2DTx[7].nic.pdcpRrc  sentPacketToLowerLayer:vector(packetBytes)  ETV
attr interpolationmode  none
attr source  sentPacketToLowerLayer
vector 433  CAIN.ueD2DTx[7].nic.mac  receivedPacketFromUpperLayer:vector(packetBytes)  ETV
attr interpolationmode  none
attr source  receivedPacketFromUpperLayer
vector 442  CAIN.ueD2DTx[7].nic.mac  CainMessageSent:vector  ETV
attr interpolationmode  none
attr title  "# of Sent CAIN message, vector"
vector 1613  CAIN.ueD2DTx[6].tcp  tcpRcvQueueBytes  ETV
vector 1600  CAIN.ueD2DTx[6].tcp  "advertised window"  ETV
vector 1599  CAIN.ueD2DTx[6].tcp  "receive window"  ETV
vector 1602  CAIN.ueD2DTx[6].tcp  "sent ack"  ETV
vector 397  CAIN.ueD2DTx[6].nic.pdcpRrc  receivedPacketFromUpperLayer:vector(packetBytes)  ETV
attr interpolationmode  none
attr source  receivedPacketFromUpperLayer
vector 400  CAIN.ueD2DTx[6].nic.pdcpRrc  sentPacketToLowerLayer:vector(packetBytes)  ETV
attr interpolationmode  none
attr source  sentPacketToLowerLayer
vector 401  CAIN.ueD2DTx[6].nic.mac  receivedPacketFromUpperLayer:vector(packetBytes)  ETV
attr interpolationmode  none
attr source  receivedPacketFromUpperLayer
vector 92  CAIN.eNodeB.nic.pdcpRrc  receivedPacketFromLowerLayer:vector(packetBytes)  ETV
attr interpolationmode  none
attr source  receivedPacketFromLowerLayer
vector 93  CAIN.eNodeB.nic.pdcpRrc  sentPacketToUpperLayer:vector(packetBytes)  ETV
attr interpolationmode  none
attr source  sentPacketToUpperLayer
vector 91  CAIN.eNodeB.nic.pdcpRrc  receivedPacketFromUpperLayer:vector(packetBytes)  ETV
attr interpolationmode  none
attr source  receivedPacketFromUpperLayer
vector 94  CAIN.eNodeB.nic.pdcpRrc  sentPacketToLowerLayer:vector(packetBytes)  ETV
attr interpolationmode  none
attr source  sentPacketToLowerLayer
vector 95  CAIN.eNodeB.nic.mac  receivedPacketFromUpperLayer:vector(packetBytes)  ETV
attr interpolationmode  none
attr source  receivedPacketFromUpperLayer
vector 411  CAIN.ueD2DTx[6].nic.mac  CainHopMessageSent:vector  ETV
attr interpolationmode  none
attr title  "# of Sent CAIN hop message, vector"
vector 404  CAIN.ueD2DTx[6].nic.mac  sentPacketToLowerLayer:vector(packetBytes)  ETV
attr interpolationmode  none
attr source  sentPacketToLowerLayer
vector 729  CAIN.ueD2DTx[16].nic.mac  DropedHopMessage:vector  ETV
attr interpolationmode  none
attr title  "Droped Hop CAIN message due to RB not available, vector"
vector 1637  CAIN.ueD2DTx[20].tcp  tcpRcvQueueBytes  ETV
vector 1624  CAIN.ueD2DTx[20].tcp  "advertised window"  ETV
vector 1623  CAIN.ueD2DTx[20].tcp  "receive window"  ETV
vector 1626  CAIN.ueD2DTx[20].tcp  "sent ack"  ETV
vector 845  CAIN.ueD2DTx[20].nic.pdcpRrc  receivedPacketFromUpperLayer:vector(packetBytes)  ETV
attr interpolationmode  none
attr source  receivedPacketFromUpperLayer
vector 848  CAIN.ueD2DTx[20].nic.pdcpRrc  sentPacketToLowerLayer:vector(packetBytes)  ETV
attr interpolationmode  none
attr source  sentPacketToLowerLayer
vector 849  CAIN.ueD2DTx[20].nic.mac  receivedPacketFromUpperLayer:vector(packetBytes)  ETV
attr interpolationmode  none
attr source  receivedPacketFromUpperLayer
vector 859  CAIN.ueD2DTx[20].nic.mac  CainHopMessageSent:vector  ETV
attr interpolationmode  none
attr title  "# of Sent CAIN hop message, vector"
vector 852  CAIN.ueD2DTx[20].nic.mac  sentPacketToLowerLayer:vector(packetBytes)  ETV
attr interpolationmode  none
attr source  sentPacketToLowerLayer
vector 228  CAIN.ueD2DTx[0].nic.phy  averageCqiDlvect:vector  ETV
attr source  averageCqiDlvect
attr title  "Average Cqi reported in DL, vector"
attr unit  cqi
vector 210  CAIN.ueD2DTx[0].nic.mac  receivedPacketFromLowerLayer:vector(packetBytes)  ETV
attr interpolationmode  none
attr source  receivedPacketFromLowerLayer
vector 212  CAIN.ueD2DTx[0].nic.mac  sentPacketToLowerLayer:vector(packetBytes)  ETV
attr interpolationmode  none
attr source  sentPacketToLowerLayer
vector 211  CAIN.ueD2DTx[0].nic.mac  sentPacketToUpperLayer:vector(packetBytes)  ETV
attr interpolationmode  none
attr source  sentPacketToUpperLayer
vector 206  CAIN.ueD2DTx[0].nic.pdcpRrc  receivedPacketFromLowerLayer:vector(packetBytes)  ETV
attr interpolationmode  none
attr source  receivedPacketFromLowerLayer
vector 207  CAIN.ueD2DTx[0].nic.pdcpRrc  sentPacketToUpperLayer:vector(packetBytes)  ETV
attr interpolationmode  none
attr source  sentPacketToUpperLayer
vector 1661  CAIN.ueD2DTx[2].tcp  tcpRcvQueueBytes  ETV
vector 1648  CAIN.ueD2DTx[2].tcp  "advertised window"  ETV
vector 1647  CAIN.ueD2DTx[2].tcp  "receive window"  ETV
vector 1650  CAIN.ueD2DTx[2].tcp  "sent ack"  ETV
vector 269  CAIN.ueD2DTx[2].nic.pdcpRrc  receivedPacketFromUpperLayer:vector(packetBytes)  ETV
attr interpolationmode  none
attr source  receivedPacketFromUpperLayer
vector 272  CAIN.ueD2DTx[2].nic.pdcpRrc  sentPacketToLowerLayer:vector(packetBytes)  ETV
attr interpolationmode  none
attr source  sentPacketToLowerLayer
vector 273  CAIN.ueD2DTx[2].nic.mac  receivedPacketFromUpperLayer:vector(packetBytes)  ETV
attr interpolationmode  none
attr source  receivedPacketFromUpperLayer
vector 276  CAIN.ueD2DTx[2].nic.mac  sentPacketToLowerLayer:vector(packetBytes)  ETV
attr interpolationmode  none
attr source  sentPacketToLowerLayer
vector 1685  CAIN.ueD2DTx[10].tcp  tcpRcvQueueBytes  ETV
vector 1672  CAIN.ueD2DTx[10].tcp  "advertised window"  ETV
vector 1671  CAIN.ueD2DTx[10].tcp  "receive window"  ETV
vector 1674  CAIN.ueD2DTx[10].tcp  "sent ack"  ETV
vector 525  CAIN.ueD2DTx[10].nic.pdcpRrc  receivedPacketFromUpperLayer:vector(packetBytes)  ETV
attr interpolationmode  none
attr source  receivedPacketFromUpperLayer
vector 528  CAIN.ueD2DTx[10].nic.pdcpRrc  sentPacketToLowerLayer:vector(packetBytes)  ETV
attr interpolationmode  none
attr source  sentPacketToLowerLayer
vector 529  CAIN.ueD2DTx[10].nic.mac  receivedPacketFromUpperLayer:vector(packetBytes)  ETV
attr interpolationmode  none
attr source  receivedPacketFromUpperLayer
vector 1709  CAIN.ueD2DTx[14].tcp  tcpRcvQueueBytes  ETV
vector 1696  CAIN.ueD2DTx[14].tcp  "advertised window"  ETV
vector 1695  CAIN.ueD2DTx[14].tcp  "receive window"  ETV
vector 1698  CAIN.ueD2DTx[14].tcp  "sent ack"  ETV
vector 653  CAIN.ueD2DTx[14].nic.pdcpRrc  receivedPacketFromUpperLayer:vector(packetBytes)  ETV
attr interpolationmode  none
attr source  receivedPacketFromUpperLayer
vector 656  CAIN.ueD2DTx[14].nic.pdcpRrc  sentPacketToLowerLayer:vector(packetBytes)  ETV
attr interpolationmode  none
attr source  sentPacketToLowerLayer
vector 657  CAIN.ueD2DTx[14].nic.mac  receivedPacketFromUpperLayer:vector(packetBytes)  ETV
attr interpolationmode  none
attr source  receivedPacketFromUpperLayer
vector 538  CAIN.ueD2DTx[10].nic.mac  CainMessageSent:vector  ETV
attr interpolationmode  none
attr title  "# of Sent CAIN message, vector"
vector 532  CAIN.ueD2DTx[10].nic.mac  sentPacketToLowerLayer:vector(packetBytes)  ETV
attr interpolationmode  none
attr source  sentPacketToLowerLayer
vector 667  CAIN.ueD2DTx[14].nic.mac  CainHopMessageSent:vector  ETV
attr interpolationmode  none
attr title  "# of Sent CAIN hop message, vector"
vector 660  CAIN.ueD2DTx[14].nic.mac  sentPacketToLowerLayer:vector(packetBytes)  ETV
attr interpolationmode  none
attr source  sentPacketToLowerLayer
vector 274  CAIN.ueD2DTx[2].nic.mac  receivedPacketFromLowerLayer:vector(packetBytes)  ETV
attr interpolationmode  none
attr source  receivedPacketFromLowerLayer
vector 275  CAIN.ueD2DTx[2].nic.mac  sentPacketToUpperLayer:vector(packetBytes)  ETV
attr interpolationmode  none
attr source  sentPacketToUpperLayer
vector 1733  CAIN.ueD2DTx[4].tcp  tcpRcvQueueBytes  ETV
vector 1720  CAIN.ueD2DTx[4].tcp  "advertised window"  ETV
vector 1719  CAIN.ueD2DTx[4].tcp  "receive window"  ETV
vector 1722  CAIN.ueD2DTx[4].tcp  "sent ack"  ETV
vector 333  CAIN.ueD2DTx[4].nic.pdcpRrc  receivedPacketFromUpperLayer:vector(packetBytes)  ETV
attr interpolationmode  none
attr source  receivedPacketFromUpperLayer
vector 336  CAIN.ueD2DTx[4].nic.pdcpRrc  sentPacketToLowerLayer:vector(packetBytes)  ETV
attr interpolationmode  none
attr source  sentPacketToLowerLayer
vector 337  CAIN.ueD2DTx[4].nic.mac  receivedPacketFromUpperLayer:vector(packetBytes)  ETV
attr interpolationmode  none
attr source  receivedPacketFromUpperLayer
vector 340  CAIN.ueD2DTx[4].nic.mac  sentPacketToLowerLayer:vector(packetBytes)  ETV
attr interpolationmode  none
attr source  sentPacketToLowerLayer
vector 108  CAIN.eNodeB.nic.mac  ServedDevs:vector  ETV
attr interpolationmode  none
attr title  "# of devices served on cain forwarding, vector"
vector 338  CAIN.ueD2DTx[4].nic.mac  receivedPacketFromLowerLayer:vector(packetBytes)  ETV
attr interpolationmode  none
attr source  receivedPacketFromLowerLayer
vector 1757  CAIN.ueD2DTx[21].tcp  tcpRcvQueueBytes  ETV
vector 1744  CAIN.ueD2DTx[21].tcp  "advertised window"  ETV
vector 1743  CAIN.ueD2DTx[21].tcp  "receive window"  ETV
vector 1746  CAIN.ueD2DTx[21].tcp  "sent ack"  ETV
vector 877  CAIN.ueD2DTx[21].nic.pdcpRrc  receivedPacketFromUpperLayer:vector(packetBytes)  ETV
attr interpolationmode  none
attr source  receivedPacketFromUpperLayer
vector 880  CAIN.ueD2DTx[21].nic.pdcpRrc  sentPacketToLowerLayer:vector(packetBytes)  ETV
attr interpolationmode  none
attr source  sentPacketToLowerLayer
vector 881  CAIN.ueD2DTx[21].nic.mac  receivedPacketFromUpperLayer:vector(packetBytes)  ETV
attr interpolationmode  none
attr source  receivedPacketFromUpperLayer
vector 891  CAIN.ueD2DTx[21].nic.mac  CainHopMessageSent:vector  ETV
attr interpolationmode  none
attr title  "# of Sent CAIN hop message, vector"
vector 884  CAIN.ueD2DTx[21].nic.mac  sentPacketToLowerLayer:vector(packetBytes)  ETV
attr interpolationmode  none
attr source  sentPacketToLowerLayer
vector 1781  CAIN.ueD2DTx[24].tcp  tcpRcvQueueBytes  ETV
vector 1768  CAIN.ueD2DTx[24].tcp  "advertised window"  ETV
vector 1767  CAIN.ueD2DTx[24].tcp  "receive window"  ETV
vector 1770  CAIN.ueD2DTx[24].tcp  "sent ack"  ETV
vector 973  CAIN.ueD2DTx[24].nic.pdcpRrc  receivedPacketFromUpperLayer:vector(packetBytes)  ETV
attr interpolationmode  none
attr source  receivedPacketFromUpperLayer
vector 976  CAIN.ueD2DTx[24].nic.pdcpRrc  sentPacketToLowerLayer:vector(packetBytes)  ETV
attr interpolationmode  none
attr source  sentPacketToLowerLayer
vector 977  CAIN.ueD2DTx[24].nic.mac  receivedPacketFromUpperLayer:vector(packetBytes)  ETV
attr interpolationmode  none
attr source  receivedPacketFromUpperLayer
vector 339  CAIN.ueD2DTx[4].nic.mac  sentPacketToUpperLayer:vector(packetBytes)  ETV
attr interpolationmode  none
attr source  sentPacketToUpperLayer
vector 986  CAIN.ueD2DTx[24].nic.mac  CainMessageSent:vector  ETV
attr interpolationmode  none
attr title  "# of Sent CAIN message, vector"
vector 728  CAIN.ueD2DTx[16].nic.mac  DropedCainMessage:vector  ETV
attr interpolationmode  none
attr title  "Droped CAIN message due to RB not available, vector"
vector 1805  CAIN.ueD2DTx[8].tcp  tcpRcvQueueBytes  ETV
vector 1792  CAIN.ueD2DTx[8].tcp  "advertised window"  ETV
vector 1791  CAIN.ueD2DTx[8].tcp  "receive window"  ETV
vector 1794  CAIN.ueD2DTx[8].tcp  "sent ack"  ETV
vector 461  CAIN.ueD2DTx[8].nic.pdcpRrc  receivedPacketFromUpperLayer:vector(packetBytes)  ETV
attr interpolationmode  none
attr source  receivedPacketFromUpperLayer
vector 464  CAIN.ueD2DTx[8].nic.pdcpRrc  sentPacketToLowerLayer:vector(packetBytes)  ETV
attr interpolationmode  none
attr source  sentPacketToLowerLayer
vector 465  CAIN.ueD2DTx[8].nic.mac  receivedPacketFromUpperLayer:vector(packetBytes)  ETV
attr interpolationmode  none
attr source  receivedPacketFromUpperLayer
vector 474  CAIN.ueD2DTx[8].nic.mac  CainMessageSent:vector  ETV
attr interpolationmode  none
attr title  "# of Sent CAIN message, vector"
vector 468  CAIN.ueD2DTx[8].nic.mac  sentPacketToLowerLayer:vector(packetBytes)  ETV
attr interpolationmode  none
attr source  sentPacketToLowerLayer
vector 1829  CAIN.ueD2DTx[9].tcp  tcpRcvQueueBytes  ETV
vector 1816  CAIN.ueD2DTx[9].tcp  "advertised window"  ETV
vector 1815  CAIN.ueD2DTx[9].tcp  "receive window"  ETV
vector 1818  CAIN.ueD2DTx[9].tcp  "sent ack"  ETV
vector 493  CAIN.ueD2DTx[9].nic.pdcpRrc  receivedPacketFromUpperLayer:vector(packetBytes)  ETV
attr interpolationmode  none
attr source  receivedPacketFromUpperLayer
vector 496  CAIN.ueD2DTx[9].nic.pdcpRrc  sentPacketToLowerLayer:vector(packetBytes)  ETV
attr interpolationmode  none
attr source  sentPacketToLowerLayer
vector 497  CAIN.ueD2DTx[9].nic.mac  receivedPacketFromUpperLayer:vector(packetBytes)  ETV
attr interpolationmode  none
attr source  receivedPacketFromUpperLayer
vector 506  CAIN.ueD2DTx[9].nic.mac  CainMessageSent:vector  ETV
attr interpolationmode  none
attr title  "# of Sent CAIN message, vector"
vector 500  CAIN.ueD2DTx[9].nic.mac  sentPacketToLowerLayer:vector(packetBytes)  ETV
attr interpolationmode  none
attr source  sentPacketToLowerLayer
vector 946  CAIN.ueD2DTx[23].nic.mac  receivedPacketFromLowerLayer:vector(packetBytes)  ETV
attr interpolationmode  none
attr source  receivedPacketFromLowerLayer
vector 948  CAIN.ueD2DTx[23].nic.mac  sentPacketToLowerLayer:vector(packetBytes)  ETV
attr interpolationmode  none
attr source  sentPacketToLowerLayer
vector 754  CAIN.ueD2DTx[17].nic.mac  receivedPacketFromLowerLayer:vector(packetBytes)  ETV
attr interpolationmode  none
attr source  receivedPacketFromLowerLayer
vector 756  CAIN.ueD2DTx[17].nic.mac  sentPacketToLowerLayer:vector(packetBytes)  ETV
attr interpolationmode  none
attr source  sentPacketToLowerLayer
vector 952  CAIN.ueD2DTx[23].nic.mac  DropedCainMessage:vector  ETV
attr interpolationmode  none
attr title  "Droped CAIN message due to RB not available, vector"
vector 1853  CAIN.ueD2DTx[15].tcp  tcpRcvQueueBytes  ETV
vector 1840  CAIN.ueD2DTx[15].tcp  "advertised window"  ETV
vector 1839  CAIN.ueD2DTx[15].tcp  "receive window"  ETV
vector 1842  CAIN.ueD2DTx[15].tcp  "sent ack"  ETV
vector 685  CAIN.ueD2DTx[15].nic.pdcpRrc  receivedPacketFromUpperLayer:vector(packetBytes)  ETV
attr interpolationmode  none
attr source  receivedPacketFromUpperLayer
vector 688  CAIN.ueD2DTx[15].nic.pdcpRrc  sentPacketToLowerLayer:vector(packetBytes)  ETV
attr interpolationmode  none
attr source  sentPacketToLowerLayer
vector 689  CAIN.ueD2DTx[15].nic.mac  receivedPacketFromUpperLayer:vector(packetBytes)  ETV
attr interpolationmode  none
attr source  receivedPacketFromUpperLayer
vector 692  CAIN.ueD2DTx[15].nic.mac  sentPacketToLowerLayer:vector(packetBytes)  ETV
attr interpolationmode  none
attr source  sentPacketToLowerLayer
vector 760  CAIN.ueD2DTx[17].nic.mac  DropedCainMessage:vector  ETV
attr interpolationmode  none
attr title  "Droped CAIN message due to RB not available, vector"
vector 1877  CAIN.ueD2DTx[17].tcp  tcpRcvQueueBytes  ETV
vector 1864  CAIN.ueD2DTx[17].tcp  "advertised window"  ETV
vector 1863  CAIN.ueD2DTx[17].tcp  "receive window"  ETV
vector 1866  CAIN.ueD2DTx[17].tcp  "sent ack"  ETV
vector 749  CAIN.ueD2DTx[17].nic.pdcpRrc  receivedPacketFromUpperLayer:vector(packetBytes)  ETV
attr interpolationmode  none
attr source  receivedPacketFromUpperLayer
vector 752  CAIN.ueD2DTx[17].nic.pdcpRrc  sentPacketToLowerLayer:vector(packetBytes)  ETV
attr interpolationmode  none
attr source  sentPacketToLowerLayer
vector 753  CAIN.ueD2DTx[17].nic.mac  receivedPacketFromUpperLayer:vector(packetBytes)  ETV
attr interpolationmode  none
attr source  receivedPacketFromUpperLayer
vector 1901  CAIN.ueD2DTx[0].tcp  tcpRcvQueueBytes  ETV
vector 1888  CAIN.ueD2DTx[0].tcp  "advertised window"  ETV
vector 1887  CAIN.ueD2DTx[0].tcp  "receive window"  ETV
vector 1890  CAIN.ueD2DTx[0].tcp  "sent ack"  ETV
vector 205  CAIN.ueD2DTx[0].nic.pdcpRrc  receivedPacketFromUpperLayer:vector(packetBytes)  ETV
attr interpolationmode  none
attr source  receivedPacketFromUpperLayer
vector 208  CAIN.ueD2DTx[0].nic.pdcpRrc  sentPacketToLowerLayer:vector(packetBytes)  ETV
attr interpolationmode  none
attr source  sentPacketToLowerLayer
vector 209  CAIN.ueD2DTx[0].nic.mac  receivedPacketFromUpperLayer:vector(packetBytes)  ETV
attr interpolationmode  none
attr source  receivedPacketFromUpperLayer
vector 219  CAIN.ueD2DTx[0].nic.mac  CainHopMessageSent:vector  ETV
attr interpolationmode  none
attr title  "# of Sent CAIN hop message, vector"
vector 530  CAIN.ueD2DTx[10].nic.mac  receivedPacketFromLowerLayer:vector(packetBytes)  ETV
attr interpolationmode  none
attr source  receivedPacketFromLowerLayer
vector 690  CAIN.ueD2DTx[15].nic.mac  receivedPacketFromLowerLayer:vector(packetBytes)  ETV
attr interpolationmode  none
attr source  receivedPacketFromLowerLayer
vector 691  CAIN.ueD2DTx[15].nic.mac  sentPacketToUpperLayer:vector(packetBytes)  ETV
attr interpolationmode  none
attr source  sentPacketToUpperLayer
vector 1461  CAIN.eNodeB1.sctp  "SendQueue of Association 5"  ETV
vector 1225  CAIN.eNodeB1.sctp  "TSN Sent 5:10.0.5.1"  ETV
vector 1232  CAIN.eNodeB1.sctp  "Outstanding Bytes 5:10.0.5.1"  ETV
vector 1030  CAIN.eNodeB1.sctp  "Outstanding Bytes 4:Total"  ETV
vector 1231  CAIN.eNodeB1.sctp  "Queued Sent Bytes 5:10.0.5.1"  ETV
vector 1029  CAIN.eNodeB1.sctp  "Queued Sent Bytes 4:Total"  ETV
vector 755  CAIN.ueD2DTx[17].nic.mac  sentPacketToUpperLayer:vector(packetBytes)  ETV
attr interpolationmode  none
attr source  sentPacketToUpperLayer
vector 1074  CAIN.eNodeB.sctp  "TSN Received 1:10.0.5.2"  ETV
vector 1050  CAIN.eNodeB.sctp  "Queued Received Bytes 1:Total"  ETV
vector 1046  CAIN.eNodeB.sctp  "Advertised Receiver Window 1"  ETV
vector 1055  CAIN.eNodeB.sctp  "Number of Total Gap Blocks Stored 1"  ETV
vector 1056  CAIN.eNodeB.sctp  "Number of Revokable Gap Blocks Stored 1"  ETV
vector 1057  CAIN.eNodeB.sctp  "Number of Non-Revokable Gap Blocks Stored 1"  ETV
vector 1058  CAIN.eNodeB.sctp  "Number of Duplicate TSNs Stored 1"  ETV
vector 1062  CAIN.eNodeB.sctp  "Length of SACK Sent 1"  ETV
vector 1059  CAIN.eNodeB.sctp  "Number of Revokable Gap Blocks Sent 1"  ETV
vector 1060  CAIN.eNodeB.sctp  "Number of Non-Revokable Gap Blocks Sent 1"  ETV
vector 1061  CAIN.eNodeB.sctp  "Number of Duplicate TSNs Sent 1"  ETV
vector 1066  CAIN.eNodeB.sctp  "End to End Delay of Association 1"  ETV
vector 141  CAIN.eNodeB.x2App[0].client  rcvdPk:vector(packetBytes)  ETV
attr interpolationmode  none
attr source  rcvdPk
attr title  "packets received, vector(packetBytes)"
vector 1460  CAIN.eNodeB1.sctp  "Number of Gap Blocks in Last SACK of Association 5"  ETV
vector 1031  CAIN.eNodeB1.sctp  "Number of Revokable Gap Blocks in SACK 4"  ETV
vector 1032  CAIN.eNodeB1.sctp  "Number of Non-Revokable Gap Blocks in SACK 4"  ETV
vector 1242  CAIN.eNodeB1.sctp  "TSN Acked CumAck 5:10.0.5.1"  ETV
vector 1208  CAIN.eNodeB1.sctp  "Number of Gap Acked Chunks in Last SACK 5:10.0.2.2"  ETV
vector 1209  CAIN.eNodeB1.sctp  "Number of Non-Revokable Gap Acked Chunks in Last SACK 5:10.0.2.2"  ETV
vector 1210  CAIN.eNodeB1.sctp  "Number of Gap Missed Chunks in Last SACK 5:10.0.2.2"  ETV
vector 1181  CAIN.eNodeB1.sctp  "Number of Gap Acked Chunks in Last SACK 5:10.0.4.1"  ETV
vector 1182  CAIN.eNodeB1.sctp  "Number of Non-Revokable Gap Acked Chunks in Last SACK 5:10.0.4.1"  ETV
vector 1183  CAIN.eNodeB1.sctp  "Number of Gap Missed Chunks in Last SACK 5:10.0.4.1"  ETV
vector 1235  CAIN.eNodeB1.sctp  "Number of Gap Acked Chunks in Last SACK 5:10.0.5.1"  ETV
vector 1236  CAIN.eNodeB1.sctp  "Number of Non-Revokable Gap Acked Chunks in Last SACK 5:10.0.5.1"  ETV
vector 1237  CAIN.eNodeB1.sctp  "Number of Gap Missed Chunks in Last SACK 5:10.0.5.1"  ETV
vector 1041  CAIN.eNodeB1.sctp  "Arwnd in Last SACK 4"  ETV
vector 1244  CAIN.eNodeB1.sctp  "TSN PseudoCumAck 5:10.0.5.1"  ETV
vector 1245  CAIN.eNodeB1.sctp  "TSN RTXPseudoCumAck 5:10.0.5.1"  ETV
vector 1238  CAIN.eNodeB1.sctp  "Partial Bytes Acked 5:10.0.5.1"  ETV
vector 1925  CAIN.ueD2DTx[1].tcp  tcpRcvQueueBytes  ETV
vector 1912  CAIN.ueD2DTx[1].tcp  "advertised window"  ETV
vector 1911  CAIN.ueD2DTx[1].tcp  "receive window"  ETV
vector 1914  CAIN.ueD2DTx[1].tcp  "sent ack"  ETV
vector 237  CAIN.ueD2DTx[1].nic.pdcpRrc  receivedPacketFromUpperLayer:vector(packetBytes)  ETV
attr interpolationmode  none
attr source  receivedPacketFromUpperLayer
vector 240  CAIN.ueD2DTx[1].nic.pdcpRrc  sentPacketToLowerLayer:vector(packetBytes)  ETV
attr interpolationmode  none
attr source  sentPacketToLowerLayer
vector 241  CAIN.ueD2DTx[1].nic.mac  receivedPacketFromUpperLayer:vector(packetBytes)  ETV
attr interpolationmode  none
attr source  receivedPacketFromUpperLayer
vector 244  CAIN.ueD2DTx[1].nic.mac  sentPacketToLowerLayer:vector(packetBytes)  ETV
attr interpolationmode  none
attr source  sentPacketToLowerLayer
vector 109  CAIN.eNodeB.nic.mac  ServedHopDevs:vector  ETV
attr interpolationmode  none
attr title  "# of devices served on hop forwarding, vector"
vector 507  CAIN.ueD2DTx[9].nic.mac  CainHopMessageSent:vector  ETV
attr interpolationmode  none
attr title  "# of Sent CAIN hop message, vector"
vector 242  CAIN.ueD2DTx[1].nic.mac  receivedPacketFromLowerLayer:vector(packetBytes)  ETV
attr interpolationmode  none
attr source  receivedPacketFromLowerLayer
vector 1949  CAIN.ueD2DTx[5].tcp  tcpRcvQueueBytes  ETV
vector 1936  CAIN.ueD2DTx[5].tcp  "advertised window"  ETV
vector 1935  CAIN.ueD2DTx[5].tcp  "receive window"  ETV
vector 1938  CAIN.ueD2DTx[5].tcp  "sent ack"  ETV
vector 365  CAIN.ueD2DTx[5].nic.pdcpRrc  receivedPacketFromUpperLayer:vector(packetBytes)  ETV
attr interpolationmode  none
attr source  receivedPacketFromUpperLayer
vector 368  CAIN.ueD2DTx[5].nic.pdcpRrc  sentPacketToLowerLayer:vector(packetBytes)  ETV
attr interpolationmode  none
attr source  sentPacketToLowerLayer
vector 369  CAIN.ueD2DTx[5].nic.mac  receivedPacketFromUpperLayer:vector(packetBytes)  ETV
attr interpolationmode  none
attr source  receivedPacketFromUpperLayer
vector 1973  CAIN.ueD2DTx[22].tcp  tcpRcvQueueBytes  ETV
vector 1960  CAIN.ueD2DTx[22].tcp  "advertised window"  ETV
vector 1959  CAIN.ueD2DTx[22].tcp  "receive window"  ETV
vector 1962  CAIN.ueD2DTx[22].tcp  "sent ack"  ETV
vector 909  CAIN.ueD2DTx[22].nic.pdcpRrc  receivedPacketFromUpperLayer:vector(packetBytes)  ETV
attr interpolationmode  none
attr source  receivedPacketFromUpperLayer
vector 912  CAIN.ueD2DTx[22].nic.pdcpRrc  sentPacketToLowerLayer:vector(packetBytes)  ETV
attr interpolationmode  none
attr source  sentPacketToLowerLayer
vector 913  CAIN.ueD2DTx[22].nic.mac  receivedPacketFromUpperLayer:vector(packetBytes)  ETV
attr interpolationmode  none
attr source  receivedPacketFromUpperLayer
vector 243  CAIN.ueD2DTx[1].nic.mac  sentPacketToUpperLayer:vector(packetBytes)  ETV
attr interpolationmode  none
attr source  sentPacketToUpperLayer
vector 379  CAIN.ueD2DTx[5].nic.mac  CainHopMessageSent:vector  ETV
attr interpolationmode  none
attr title  "# of Sent CAIN hop message, vector"
vector 372  CAIN.ueD2DTx[5].nic.mac  sentPacketToLowerLayer:vector(packetBytes)  ETV
attr interpolationmode  none
attr source  sentPacketToLowerLayer
vector 922  CAIN.ueD2DTx[22].nic.mac  CainMessageSent:vector  ETV
attr interpolationmode  none
attr title  "# of Sent CAIN message, vector"
vector 916  CAIN.ueD2DTx[22].nic.mac  sentPacketToLowerLayer:vector(packetBytes)  ETV
attr interpolationmode  none
attr source  sentPacketToLowerLayer
vector 154  CAIN.eNodeB1.nic.mac  receivedPacketFromLowerLayer:vector(packetBytes)  ETV
attr interpolationmode  none
attr source  receivedPacketFromLowerLayer
vector 1997  CAIN.ueD2DTx[3].tcp  tcpRcvQueueBytes  ETV
vector 1984  CAIN.ueD2DTx[3].tcp  "advertised window"  ETV
vector 1983  CAIN.ueD2DTx[3].tcp  "receive window"  ETV
vector 1986  CAIN.ueD2DTx[3].tcp  "sent ack"  ETV
vector 301  CAIN.ueD2DTx[3].nic.pdcpRrc  receivedPacketFromUpperLayer:vector(packetBytes)  ETV
attr interpolationmode  none
attr source  receivedPacketFromUpperLayer
vector 304  CAIN.ueD2DTx[3].nic.pdcpRrc  sentPacketToLowerLayer:vector(packetBytes)  ETV
attr interpolationmode  none
attr source  sentPacketToLowerLayer
vector 305  CAIN.ueD2DTx[3].nic.mac  receivedPacketFromUpperLayer:vector(packetBytes)  ETV
attr interpolationmode  none
attr source  receivedPacketFromUpperLayer
vector 308  CAIN.ueD2DTx[3].nic.mac  sentPacketToLowerLayer:vector(packetBytes)  ETV
attr interpolationmode  none
attr source  sentPacketToLowerLayer
vector 306  CAIN.ueD2DTx[3].nic.mac  receivedPacketFromLowerLayer:vector(packetBytes)  ETV
attr interpolationmode  none
attr source  receivedPacketFromLowerLayer
vector 307  CAIN.ueD2DTx[3].nic.mac  sentPacketToUpperLayer:vector(packetBytes)  ETV
attr interpolationmode  none
attr source  sentPacketToUpperLayer
vector 2021  CAIN.ueD2DTx[16].tcp  tcpRcvQueueBytes  ETV
vector 2008  CAIN.ueD2DTx[16].tcp  "advertised window"  ETV
vector 2007  CAIN.ueD2DTx[16].tcp  "receive window"  ETV
vector 2010  CAIN.ueD2DTx[16].tcp  "sent ack"  ETV
vector 717  CAIN.ueD2DTx[16].nic.pdcpRrc  receivedPacketFromUpperLayer:vector(packetBytes)  ETV
attr interpolationmode  none
attr source  receivedPacketFromUpperLayer
vector 720  CAIN.ueD2DTx[16].nic.pdcpRrc  sentPacketToLowerLayer:vector(packetBytes)  ETV
attr interpolationmode  none
attr source  sentPacketToLowerLayer
vector 721  CAIN.ueD2DTx[16].nic.mac  receivedPacketFromUpperLayer:vector(packetBytes)  ETV
attr interpolationmode  none
attr source  receivedPacketFromUpperLayer
vector 169  CAIN.eNodeB1.nic.mac  racpkt:vector  ETV
attr interpolationmode  none
attr title  "eNB received racpkt message, vector"
vector 170  CAIN.eNodeB1.nic.mac  racDistanceSignal:vector  ETV
attr interpolationmode  none
attr title  "Rac distance to enb, vector"
vector 171  CAIN.eNodeB1.nic.mac  racServedDevsSignal:vector  ETV
attr interpolationmode  none
attr title  "# of devices served on rac arriavall, vector"
vector 156  CAIN.eNodeB1.nic.mac  sentPacketToLowerLayer:vector(packetBytes)  ETV
attr interpolationmode  none
attr source  sentPacketToLowerLayer
vector 2045  CAIN.ueD2DTx[23].tcp  tcpRcvQueueBytes  ETV
vector 2032  CAIN.ueD2DTx[23].tcp  "advertised window"  ETV
vector 2031  CAIN.ueD2DTx[23].tcp  "receive window"  ETV
vector 2034  CAIN.ueD2DTx[23].tcp  "sent ack"  ETV
vector 941  CAIN.ueD2DTx[23].nic.pdcpRrc  receivedPacketFromUpperLayer:vector(packetBytes)  ETV
attr interpolationmode  none
attr source  receivedPacketFromUpperLayer
vector 944  CAIN.ueD2DTx[23].nic.pdcpRrc  sentPacketToLowerLayer:vector(packetBytes)  ETV
attr interpolationmode  none
attr source  sentPacketToLowerLayer
vector 945  CAIN.ueD2DTx[23].nic.mac  receivedPacketFromUpperLayer:vector(packetBytes)  ETV
attr interpolationmode  none
attr source  receivedPacketFromUpperLayer
vector 947  CAIN.ueD2DTx[23].nic.mac  sentPacketToUpperLayer:vector(packetBytes)  ETV
attr interpolationmode  none
attr source  sentPacketToUpperLayer
vector 2069  CAIN.ueD2DTx[18].tcp  tcpRcvQueueBytes  ETV
vector 2056  CAIN.ueD2DTx[18].tcp  "advertised window"  ETV
vector 2055  CAIN.ueD2DTx[18].tcp  "receive window"  ETV
vector 2058  CAIN.ueD2DTx[18].tcp  "sent ack"  ETV
vector 781  CAIN.ueD2DTx[18].nic.pdcpRrc  receivedPacketFromUpperLayer:vector(packetBytes)  ETV
attr interpolationmode  none
attr source  receivedPacketFromUpperLayer
vector 784  CAIN.ueD2DTx[18].nic.pdcpRrc  sentPacketToLowerLayer:vector(packetBytes)  ETV
attr interpolationmode  none
attr source  sentPacketToLowerLayer
vector 785  CAIN.ueD2DTx[18].nic.mac  receivedPacketFromUpperLayer:vector(packetBytes)  ETV
attr interpolationmode  none
attr source  receivedPacketFromUpperLayer
vector 787  CAIN.ueD2DTx[18].nic.mac  sentPacketToUpperLayer:vector(packetBytes)  ETV
attr interpolationmode  none
attr source  sentPacketToUpperLayer
vector 603  CAIN.ueD2DTx[12].nic.mac  CainHopMessageSent:vector  ETV
attr interpolationmode  none
attr title  "# of Sent CAIN hop message, vector"
1268	57691 24 175 175 0.0000001228 0.0000001228 1 0 0 0 0
1379	57715 28 260 260 0.0000006304 0.0000006304 1 65535 65535 65535 4294836225
1380	57743 27 260 260 0.0000006304 0.0000006304 1 8940 8940 8940 79923600
1381	57770 29 260 260 0.0000006304 0.0000006304 1 0.3725 0.3725 0.3725 0.13875625
1377	57799 24 260 260 0.0000006304 0.0000006304 1 3 3 3 9
1384	57823 24 260 260 0.0000006304 0.0000006304 1 1 1 1 1
1396	57847 24 188 188 0.0000003096 0.0000003096 1 0 0 0 0
1352	57871 28 260 260 0.0000006304 0.0000006304 1 65535 65535 65535 4294836225
1353	57899 27 260 260 0.0000006304 0.0000006304 1 8940 8940 8940 79923600
1354	57926 29 260 260 0.0000006304 0.0000006304 1 0.3725 0.3725 0.3725 0.13875625
1350	57955 24 260 260 0.0000006304 0.0000006304 1 3 3 3 9
1357	57979 24 260 260 0.0000006304 0.0000006304 1 1 1 1 1
1369	58003 24 188 188 0.0000003096 0.0000003096 1 0 0 0 0
1070	58027 28 260 260 0.0000006304 0.0000006304 1 65535 65535 65535 4294836225
1071	58055 27 260 260 0.0000006304 0.0000006304 1 8940 8940 8940 79923600
1072	58082 29 260 260 0.0000006304 0.0000006304 1 0.3725 0.3725 0.3725 0.13875625
1068	58111 48 260 327 0.0000006304 0.0000008564 2 1 3 4 10
1069	58159 31 327 327 0.0000008564 0.0000008564 1 2.26e-07 2.26e-07 2.26e-07 5.1076e-14
1074	58190 2080 4436 19350 0.0570000972 0.2570015836 72 2000 2071 146556 298345836
1077	60270 46 232 246 0.000000552 0.000000596 2 1 2 3 5
1076	60316 46 232 246 0.000000552 0.000000596 2 1 2 3 5
1078	60362 48 327 333 0.0000008564 0.0000009004 2 1 2 3 5
1087	60410 13 156 156 0 0 1 0 0 0 0
1046	60423 89 4436 33510 0.0570000972 0.4570015836 3 65533 65535 196603 12884246539
1050	60512 1944 4436 33510 0.0570000972 0.4570015836 75 0 128 146 16588
1055	62456 77 4436 33510 0.0570000972 0.4570015836 3 0 0 0 0
1056	62533 77 4436 33510 0.0570000972 0.4570015836 3 0 0 0 0
1057	62610 77 4436 33510 0.0570000972 0.4570015836 3 0 0 0 0
1058	62687 77 4436 33510 0.0570000972 0.4570015836 3 0 0 0 0
1059	62764 77 4436 33510 0.0570000972 0.4570015836 3 0 0 0 0
1060	62841 77 4436 33510 0.0570000972 0.4570015836 3 0 0 0 0
1061	62918 77 4436 33510 0.0570000972 0.4570015836 3 0 0 0 0
1062	62995 80 4436 33510 0.0570000972 0.4570015836 3 16 16 48 768
1064	63075 28 188 188 0.0000003096 0.0000003096 1 65535 65535 65535 4294836225
1066	63103 2503 4439 19415 0.0570000972 0.2570015836 72 9.72e-08 1.1052e-06 7.21824e-05 7.844462208e-11
1067	65606 13 156 156 0 0 1 0 0 0 0
1298	65619 27 203 203 0.000000458 0.000000458 1 65535 65535 65535 4294836225
1299	65646 26 203 203 0.000000458 0.000000458 1 8940 8940 8940 79923600
1300	65672 28 203 203 0.000000458 0.000000458 1 0.3725 0.3725 0.3725 0.13875625
1296	65700 23 203 203 0.000000458 0.000000458 1 3 3 3 9
1303	65723 23 203 203 0.000000458 0.000000458 1 1 1 1 1
1311	65746 76 729 30053 0.0070001912 0.4070016776 3 0 0 0 0
1312	65822 76 729 30053 0.0070001912 0.4070016776 3 0 0 0 0
1313	65898 76 729 30053 0.0070001912 0.4070016776 3 0 0 0 0
1315	65974 24 175 175 0.0000001228 0.0000001228 1 0 0 0 0
1271	65998 27 203 203 0.000000458 0.000000458 1 65535 65535 65535 4294836225
1272	66025 26 203 203 0.000000458 0.000000458 1 8940 8940 8940 79923600
1273	66051 28 203 203 0.000000458 0.000000458 1 0.3725 0.3725 0.3725 0.13875625
1269	66079 23 203 203 0.000000458 0.000000458 1 3 3 3 9
1276	66102 23 203 203 0.000000458 0.000000458 1 1 1 1 1
1284	66125 76 729 30053 0.0070001912 0.4070016776 3 0 0 0 0
1285	66201 76 729 30053 0.0070001912 0.4070016776 3 0 0 0 0
1286	66277 76 729 30053 0.0070001912 0.4070016776 3 0 0 0 0
1288	66353 24 175 175 0.0000001228 0.0000001228 1 0 0 0 0
1325	66377 57 203 85353 0.000000458 1.2070004784 2 65535 65535 131070 8589672450
1326	66434 55 203 85353 0.000000458 1.2070004784 2 8940 8940 17880 159847200
1327	66489 58 203 85353 0.000000458 1.2070004784 2 0.3725 23.84 24.2125 568.48435625
1323	66547 123 203 30053 0.000000458 0.4070016776 5 1 3 7 13
1324	66670 138 280 30053 0.0000006744 0.4070016776 4 1.912e-07 0.2000011992 0.400001894 0.080000594561604
1328	66808 2065 674 15602 0.007 0.2070004784 72 2000 2071 146556 298345836
1332	68873 48 298 312 0.0000007624 0.0000008064 2 1 2 3 5
1331	68921 48 298 312 0.0000007624 0.0000008064 2 1 2 3 5
1333	68969 48 280 290 0.0000006744 0.0000007184 2 1 2 3 5
1334	69017 3872 674 30053 0.007 0.4070016776 144 0 128 8292 700064
1335	72889 3872 674 30053 0.007 0.4070016776 144 0 128 8292 700064
1338	76761 76 729 30053 0.0070001912 0.4070016776 3 0 0 0 0
1339	76837 76 729 30053 0.0070001912 0.4070016776 3 0 0 0 0
1340	76913 76 729 30053 0.0070001912 0.4070016776 3 0 0 0 0
1341	76989 76 729 30053 0.0070001912 0.4070016776 3 0 0 0 0
1342	77065 24 175 175 0.0000001228 0.0000001228 1 0 0 0 0
1345	77089 85 729 30053 0.0070001912 0.4070016776 3 2000 2071 6078 12317090
1347	77174 76 729 30053 0.0070001912 0.4070016776 3 0 0 0 0
1348	77250 76 729 30053 0.0070001912 0.4070016776 3 0 0 0 0
1464	77326 76 729 30053 0.0070001912 0.4070016776 3 0 0 0 0
1465	77402 3246 674 15602 0.007 0.2070004784 144 0 64 4146 175016
1008	80648 3872 674 30053 0.007 0.4070016776 144 0 128 8292 700064
1007	84520 3872 674 30053 0.007 0.4070016776 144 0 128 8292 700064
1009	88392 76 729 30053 0.0070001912 0.4070016776 3 0 0 0 0
1010	88468 76 729 30053 0.0070001912 0.4070016776 3 0 0 0 0
1019	88544 88 729 30053 0.0070001912 0.4070016776 3 65533 65535 196603 12884246539
1020	88632 116 175 30053 0.0000001228 0.4070016776 4 65533 65535 262138 17179082764
1023	88748 13 148 148 0 0 1 0 0 0 0
1165	88761 24 174 174 0.0000001228 0.0000001228 1 0 0 0 0
1433	88785 28 261 261 0.0000006304 0.0000006304 1 65535 65535 65535 4294836225
1434	88813 27 261 261 0.0000006304 0.0000006304 1 8940 8940 8940 79923600
1435	88840 29 261 261 0.0000006304 0.0000006304 1 0.3725 0.3725 0.3725 0.13875625
1431	88869 24 261 261 0.0000006304 0.0000006304 1 3 3 3 9
1438	88893 24 261 261 0.0000006304 0.0000006304 1 1 1 1 1
1450	88917 24 189 189 0.0000003096 0.0000003096 1 0 0 0 0
1406	88941 28 261 261 0.0000006304 0.0000006304 1 65535 65535 65535 4294836225
1407	88969 27 261 261 0.0000006304 0.0000006304 1 8940 8940 8940 79923600
1408	88996 29 261 261 0.0000006304 0.0000006304 1 0.3725 0.3725 0.3725 0.13875625
1404	89025 24 261 261 0.0000006304 0.0000006304 1 3 3 3 9
1411	89049 24 261 261 0.0000006304 0.0000006304 1 1 1 1 1
1423	89073 24 189 189 0.0000003096 0.0000003096 1 0 0 0 0
1119	89097 28 261 261 0.0000006304 0.0000006304 1 65535 65535 65535 4294836225
1120	89125 27 261 261 0.0000006304 0.0000006304 1 8940 8940 8940 79923600
1121	89152 29 261 261 0.0000006304 0.0000006304 1 0.3725 0.3725 0.3725 0.13875625
1117	89181 48 261 326 0.0000006304 0.0000008564 2 1 3 4 10
1118	89229 31 326 326 0.0000008564 0.0000008564 1 2.26e-07 2.26e-07 2.26e-07 5.1076e-14
1123	89260 2072 717 15609 0.0070000972 0.2070015836 72 2000 2071 146556 298345836
1126	91332 46 233 247 0.000000552 0.000000596 2 1 2 3 5
1125	91378 46 233 247 0.000000552 0.000000596 2 1 2 3 5
1127	91424 48 326 332 0.0000008564 0.0000009004 2 1 2 3 5
1136	91472 13 157 157 0 0 1 0 0 0 0
1095	91485 88 717 30046 0.0070000972 0.4070015836 3 65533 65535 196603 12884246539
1099	91573 1935 717 30046 0.0070000972 0.4070015836 75 0 128 146 16588
1104	93508 76 717 30046 0.0070000972 0.4070015836 3 0 0 0 0
1105	93584 76 717 30046 0.0070000972 0.4070015836 3 0 0 0 0
1106	93660 76 717 30046 0.0070000972 0.4070015836 3 0 0 0 0
1107	93736 76 717 30046 0.0070000972 0.4070015836 3 0 0 0 0
1108	93812 76 717 30046 0.0070000972 0.4070015836 3 0 0 0 0
1109	93888 76 717 30046 0.0070000972 0.4070015836 3 0 0 0 0
1110	93964 76 717 30046 0.0070000972 0.4070015836 3 0 0 0 0
1111	94040 79 717 30046 0.0070000972 0.4070015836 3 16 16 48 768
1113	94119 28 189 189 0.0000003096 0.0000003096 1 65535 65535 65535 4294836225
1115	94147 2495 720 15674 0.0070000972 0.2070015836 72 9.72e-08 1.1052e-06 7.21824e-05 7.844462208e-11
1116	96642 13 157 157 0 0 1 0 0 0 0
1195	96655 27 202 202 0.000000458 0.000000458 1 65535 65535 65535 4294836225
1196	96682 26 202 202 0.000000458 0.000000458 1 8940 8940 8940 79923600
1197	96708 28 202 202 0.000000458 0.000000458 1 0.3725 0.3725 0.3725 0.13875625
1193	96736 23 202 202 0.000000458 0.000000458 1 3 3 3 9
1200	96759 23 202 202 0.000000458 0.000000458 1 1 1 1 1
1208	96782 77 4448 33517 0.0570001912 0.4570016776 3 0 0 0 0
1209	96859 77 4448 33517 0.0570001912 0.4570016776 3 0 0 0 0
1210	96936 77 4448 33517 0.0570001912 0.4570016776 3 0 0 0 0
1212	97013 24 174 174 0.0000001228 0.0000001228 1 0 0 0 0
1168	97037 27 202 202 0.000000458 0.000000458 1 65535 65535 65535 4294836225
1169	97064 26 202 202 0.000000458 0.000000458 1 8940 8940 8940 79923600
1170	97090 28 202 202 0.000000458 0.000000458 1 0.3725 0.3725 0.3725 0.13875625
1166	97118 23 202 202 0.000000458 0.000000458 1 3 3 3 9
1173	97141 23 202 202 0.000000458 0.000000458 1 1 1 1 1
1181	97164 77 4448 33517 0.0570001912 0.4570016776 3 0 0 0 0
1182	97241 77 4448 33517 0.0570001912 0.4570016776 3 0 0 0 0
1183	97318 77 4448 33517 0.0570001912 0.4570016776 3 0 0 0 0
1185	97395 24 174 174 0.0000001228 0.0000001228 1 0 0 0 0
1222	97419 57 202 88827 0.000000458 1.2570004784 2 65535 65535 131070 8589672450
1223	97476 55 202 88827 0.000000458 1.2570004784 2 8940 8940 17880 159847200
1224	97531 58 202 88827 0.000000458 1.2570004784 2 0.3725 23.84 24.2125 568.48435625
1220	97589 124 202 33517 0.000000458 0.4570016776 5 1 3 7 13
1221	97713 139 281 33517 0.0000006744 0.4570016776 4 1.912e-07 0.2000011992 0.400001894 0.080000594561604
1225	97852 2073 4351 19343 0.057 0.2570004784 72 2000 2071 146556 298345836
1229	99925 48 299 313 0.0000007624 0.0000008064 2 1 2 3 5
1228	99973 48 299 313 0.0000007624 0.0000008064 2 1 2 3 5
1230	100021 48 281 291 0.0000006744 0.0000007184 2 1 2 3 5
1231	100069 3881 4351 33517 0.057 0.4570016776 144 0 128 8292 700064
1232	103950 3881 4351 33517 0.057 0.4570016776 144 0 128 8292 700064
1235	107831 77 4448 33517 0.0570001912 0.4570016776 3 0 0 0 0
1236	107908 77 4448 33517 0.0570001912 0.4570016776 3 0 0 0 0
1237	107985 77 4448 33517 0.0570001912 0.4570016776 3 0 0 0 0
1238	108062 77 4448 33517 0.0570001912 0.4570016776 3 0 0 0 0
1239	108139 24 174 174 0.0000001228 0.0000001228 1 0 0 0 0
1242	108163 86 4448 33517 0.0570001912 0.4570016776 3 2000 2071 6078 12317090
1244	108249 77 4448 33517 0.0570001912 0.4570016776 3 0 0 0 0
1245	108326 77 4448 33517 0.0570001912 0.4570016776 3 0 0 0 0
1460	108403 77 4448 33517 0.0570001912 0.4570016776 3 0 0 0 0
1461	108480 3262 4351 19343 0.057 0.2570004784 144 0 64 4146 175016
1030	111742 3881 4351 33517 0.057 0.4570016776 144 0 128 8292 700064
1029	115623 3881 4351 33517 0.057 0.4570016776 144 0 128 8292 700064
1031	119504 77 4448 33517 0.0570001912 0.4570016776 3 0 0 0 0
1032	119581 77 4448 33517 0.0570001912 0.4570016776 3 0 0 0 0
1041	119658 89 4448 33517 0.0570001912 0.4570016776 3 65533 65535 196603 12884246539
1042	119747 117 174 33517 0.0000001228 0.4570016776 4 65533 65535 262138 17179082764
1045	119864 13 153 153 0 0 1 0 0 0 0
8	119877 8 0 0 0 0 1 0 0 0 0
9	119885 8 0 0 0 0 1 0 0 0 0
24	119893 9 0 0 0 0 1 0 0 0 0
25	119902 9 0 0 0 0 1 0 0 0 0
35	119911 9 0 0 0 0 1 0 0 0 0
36	119920 9 0 0 0 0 1 0 0 0 0
56	119929 9 0 0 0 0 1 0 0 0 0
57	119938 9 0 0 0 0 1 0 0 0 0
67	119947 9 0 0 0 0 1 0 0 0 0
68	119956 9 0 0 0 0 1 0 0 0 0
78	119965 9 0 0 0 0 1 0 0 0 0
79	119974 9 0 0 0 0 1 0 0 0 0
91	119983 153 1831 8506 0.026 0.106 9 44 44 396 17424
92	120136 153 1826 8501 0.026 0.106 9 45 45 405 18225
93	120289 153 1826 8501 0.026 0.106 9 44 44 396 17424
94	120442 153 1831 8506 0.026 0.106 9 45 45 405 18225
95	120595 306 1834 8576 0.026 0.107 18 45 47 828 38106
96	120901 250976 418 169602 0.002 2.426 14555 0 0 0 0
97	371877 473 1527 8572 0.021 0.107 29 0 47 445 14231
98	372350 68009 1179 169504 0.014 2.425 3938 0 0 0 0
99	440359 451 1527 8572 0.021 0.107 28 0 18 144 1932
100	440810 59873 1251 169504 0.016 2.425 2864 1 2864 4102680 7834751240
101	500683 19942 1294 169432 0.017 2.424 986 1 986 486591 320014681
106	520625 154932 1251 169504 0.016 2.425 7612 233 684 3464702 1818639600
108	675557 51890 2829 169437 0.039 2.424 2819 3 7 19722 138006
109	727447 18295 4556 169365 0.058 2.423 943 10 15 14114 211322
111	745742 161797 1179 169504 0.014 2.425 7630 1 7630 29112265 148094092055
112	907539 155274 1179 169504 0.014 2.425 7630 106 554 3652603 1792630493
113	1062813 140014 1179 169504 0.014 2.425 7630 0 0 0 0
115	1202827 409 1351 8281 0.018 0.103 24 2 10 121 795
120	1203236 10 0 0 0 0 1 0 0 0 0
121	1203246 10 0 0 0 0 1 0 0 0 0
128	1203256 421 164 33512 0 0.4570015836 18 36 1312 2464 1827680
130	1203677 438 164 33512 0 0.4570015836 18 0 8.8e-08 3.088e-07 1.946112e-14
131	1204115 280 0 283 0 0.0000007124 13 0 2 10 14
132	1204395 828 0 33514 0 0.4570016276 37 0 1 18 18
133	1205223 423 166 33513 0 0.4570015836 18 43 1319 2590 1863058
134	1205646 442 171 30051 0.0000001228 0.4070016776 18 43 1319 2590 1863058
137	1206088 423 166 33513 0 0.4570015836 18 36 1312 2464 1827680
138	1206511 442 171 30051 0.0000001228 0.4070016776 18 36 1312 2464 1827680
141	1206953 1792 4441 19542 0.0570000972 0.2570015836 72 2 2 144 288
154	1208745 57422 4860 169600 0.062 2.426 3160 0 0 0 0
156	1266167 17 6186 6186 0.077 0.077 1 0 0 0 0
169	1266184 17 6186 6186 0.077 0.077 1 1 1 1 1
170	1266201 19 6186 6186 0.077 0.077 1 285 285 285 81225
171	1266220 17 6186 6186 0.077 0.077 1 0 0 0 0
178	1266237 10 0 0 0 0 1 0 0 0 0
179	1266247 10 0 0 0 0 1 0 0 0 0
186	1266257 422 165 30048 0 0.4070015836 18 36 1312 2464 1827680
188	1266679 439 165 30048 0 0.4070015836 18 0 8.8e-08 3.088e-07 1.946112e-14
189	1267118 280 0 282 0 0.0000007124 13 0 2 10 14
190	1267398 830 0 30050 0 0.4070016276 37 0 1 18 18
191	1268228 424 167 30049 0 0.4070015836 18 43 1319 2590 1863058
192	1268652 441 170 33515 0.0000001228 0.4570016776 18 43 1319 2590 1863058
195	1269093 424 167 30049 0 0.4070015836 18 36 1312 2464 1827680
196	1269517 441 170 33515 0.0000001228 0.4570016776 18 36 1312 2464 1827680
199	1269958 1784 722 15801 0.0070000972 0.2070015836 72 2 2 144 288
205	1271742 27 3935 3935 0.052847558425 0.052847558425 1 44 44 44 1936
206	1271769 162 2194 8905 0.031 0.111 9 45 45 405 18225
207	1271931 162 2194 8905 0.031 0.111 9 44 44 396 17424
208	1272093 27 3935 3935 0.052847558425 0.052847558425 1 45 45 45 2025
209	1272120 27 3938 3938 0.052847558425 0.052847558425 1 45 45 45 2025
210	1272147 152 2022 8692 0.028 0.108 9 0 0 0 0
211	1272299 162 2190 8901 0.031 0.111 9 47 47 423 19881
212	1272461 8889 2190 169319 0.031 2.423 484 0 0 0 0
219	1281350 9578 3945 169319 0.053 2.423 475 1 475 113050 35836850
228	1290928 152 2021 8691 0.028 0.108 9 2 2 18 36
231	1291080 10 0 0 0 0 1 1 1 1 1
237	1291090 27 4495 4495 0.057084039294 0.057084039294 1 44 44 44 1936
240	1291117 27 4495 4495 0.057084039294 0.057084039294 1 45 45 45 2025
241	1291144 79 4498 5370 0.057084039294 0.068 4 0 47 92 4234
242	1291223 288 4683 8566 0.06 0.106 17 0 0 0 0
243	1291511 51 4798 5366 0.062 0.068 3 0 0 0 0
244	1291562 221 4503 8566 0.058 0.106 13 0 0 0 0
263	1291783 10 0 0 0 0 1 1 1 1 1
269	1291793 27 2337 2337 0.032546852513 0.032546852513 1 44 44 44 1936
272	1291820 27 2337 2337 0.032546852513 0.032546852513 1 45 45 45 2025
273	1291847 63 2340 2991 0.032546852513 0.042 3 19 45 94 3286
274	1291910 135 2483 3434 0.035 0.047 8 0 0 0 0
275	1292045 34 2621 2987 0.037 0.042 2 0 0 0 0
276	1292079 68 2345 3023 0.033 0.042 4 0 0 0 0
295	1292147 10 0 0 0 0 1 1 1 1 1
301	1292157 27 5088 5088 0.064453871725 0.064453871725 1 44 44 44 1936
304	1292184 27 5088 5088 0.064453871725 0.064453871725 1 45 45 45 2025
305	1292211 63 5091 5889 0.064453871725 0.074 3 19 45 94 3286
306	1292274 136 5343 6354 0.067 0.079 8 0 0 0 0
307	1292410 34 5531 5885 0.069 0.074 2 0 0 0 0
308	1292444 67 5102 5915 0.065 0.074 4 0 0 0 0
327	1292511 10 0 0 0 0 1 1 1 1 1
333	1292521 27 2675 2675 0.037261432968 0.037261432968 1 44 44 44 1936
336	1292548 27 2675 2675 0.037261432968 0.037261432968 1 45 45 45 2025
337	1292575 81 2678 3500 0.037261432968 0.048 4 15 45 96 2916
338	1292656 152 2875 3978 0.04 0.053 9 0 0 0 0
339	1292808 51 2993 3496 0.042 0.048 3 0 0 0 0
340	1292859 85 2686 3525 0.038 0.048 5 0 0 0 0
359	1292944 10 0 0 0 0 1 1 1 1 1
365	1292954 27 4783 4783 0.061955560849 0.061955560849 1 44 44 44 1936
368	1292981 27 4783 4783 0.061955560849 0.061955560849 1 45 45 45 2025
369	1293008 27 4786 4786 0.061955560849 0.061955560849 1 45 45 45 2025
372	1293035 17 4806 4806 0.062 0.062 1 0 0 0 0
379	1293052 17 4806 4806 0.062 0.062 1 1 1 1 1
391	1293069 163 0 8412 0 0.105 10 1 2 19 37
397	1293232 27 1817 1817 0.025271030879 0.025271030879 1 44 44 44 1936
400	1293259 27 1817 1817 0.025271030879 0.025271030879 1 45 45 45 2025
401	1293286 27 1820 1820 0.025271030879 0.025271030879 1 45 45 45 2025
404	1293313 8839 1842 169520 0.026 2.426 481 0 0 0 0
411	1302152 9693 1842 169520 0.026 2.426 481 1 481 115921 37210641
423	1311845 10 0 0 0 0 1 1 1 1 1
429	1311855 27 1721 1721 0.024352218178 0.024352218178 1 44 44 44 1936
432	1311882 27 1721 1721 0.024352218178 0.024352218178 1 45 45 45 2025
433	1311909 27 1724 1724 0.024352218178 0.024352218178 1 45 45 45 2025
434	1311936 8936 1215 169298 0.015 2.422 487 0 0 0 0
436	1320872 17507 1215 169472 0.015 2.425 968 0 0 0 0
442	1338379 9425 1783 169472 0.025 2.425 481 1 481 115921 37210641
455	1347804 10 0 0 0 0 1 1 1 1 1
461	1347814 27 3461 3461 0.047532676856 0.047532676856 1 44 44 44 1936
464	1347841 27 3461 3461 0.047532676856 0.047532676856 1 45 45 45 2025
465	1347868 27 3464 3464 0.047532676856 0.047532676856 1 45 45 45 2025
468	1347895 8753 3504 169328 0.048 2.423 476 0 0 0 0
474	1356648 9597 3504 169328 0.048 2.423 476 1 476 113526 36063426
487	1366245 10 0 0 0 0 1 1 1 1 1
493	1366255 27 3560 3560 0.048413756283 0.048413756283 1 44 44 44 1936
496	1366282 27 3560 3560 0.048413756283 0.048413756283 1 45 45 45 2025
497	1366309 27 3563 3563 0.048413756283 0.048413756283 1 45 45 45 2025
500	1366336 8753 3624 169402 0.049 2.424 476 0 0 0 0
506	1375089 9559 3624 169402 0.049 2.424 474 1 474 112575 35611225
507	1384648 34 4569 5040 0.059 0.064 2 1 2 3 5
519	1384682 10 0 0 0 0 1 1 1 1 1
525	1384692 27 2431 2431 0.034129833705 0.034129833705 1 44 44 44 1936
528	1384719 27 2431 2431 0.034129833705 0.034129833705 1 45 45 45 2025
529	1384746 27 2434 2434 0.034129833705 0.034129833705 1 45 45 45 2025
530	1384773 8770 4066 169423 0.054 2.424 477 0 0 0 0
532	1393543 17308 2457 169476 0.035 2.425 956 0 0 0 0
538	1410851 9388 2457 169476 0.035 2.425 479 1 479 114960 36748880
551	1420239 10 0 0 0 0 1 1 1 1 1
557	1420249 27 1572 1572 0.021843716542 0.021843716542 1 44 44 44 1936
560	1420276 27 1572 1572 0.021843716542 0.021843716542 1 45 45 45 2025
561	1420303 27 1575 1575 0.021843716542 0.021843716542 1 45 45 45 2025
564	1420330 119 1589 3875 0.022 0.052 7 0 0 0 0
571	1420449 119 1589 3875 0.022 0.052 7 1 7 28 140
583	1420568 163 0 8413 0 0.105 10 1 2 19 37
589	1420731 27 1092 1092 0.013528948517 0.013528948517 1 44 44 44 1936
592	1420758 27 1092 1092 0.013528948517 0.013528948517 1 45 45 45 2025
593	1420785 27 1095 1095 0.013528948517 0.013528948517 1 45 45 45 2025
596	1420812 8872 1110 169406 0.014 2.424 483 0 0 0 0
602	1429684 9711 1110 169406 0.014 2.424 482 1 482 116403 37442965
603	1439395 17 8313 8313 0.104 0.104 1 1 1 1 1
615	1439412 10 0 0 0 0 1 1 1 1 1
621	1439422 26 997 997 0.012270864309 0.012270864309 1 44 44 44 1936
624	1439448 26 997 997 0.012270864309 0.012270864309 1 45 45 45 2025
625	1439474 62 1000 1596 0.012270864309 0.022 3 4 45 94 4066
626	1439536 34967 1218 169501 0.015 2.425 1917 0 0 0 0
627	1474503 34 1271 1592 0.017 0.022 2 0 0 0 0
628	1474537 34900 1065 169501 0.013 2.425 1913 0 0 0 0
647	1509437 10 0 0 0 0 1 1 1 1 1
653	1509447 27 2439 2439 0.034439526021 0.034439526021 1 44 44 44 1936
656	1509474 27 2439 2439 0.034439526021 0.034439526021 1 45 45 45 2025
657	1509501 27 2442 2442 0.034439526021 0.034439526021 1 45 45 45 2025
660	1509528 83 2462 4165 0.035 0.055 5 0 0 0 0
667	1509611 83 2462 4165 0.035 0.055 5 1 5 15 55
679	1509694 163 0 8414 0 0.105 10 1 2 19 37
685	1509857 27 3846 3846 0.051566809383 0.051566809383 1 44 44 44 1936
688	1509884 27 3846 3846 0.051566809383 0.051566809383 1 45 45 45 2025
689	1509911 80 3849 4821 0.051566809383 0.062 4 3 45 96 3186
690	1509991 220 4080 8705 0.054 0.108 13 0 0 0 0
691	1510211 51 4228 4817 0.056 0.062 3 0 0 0 0
692	1510262 153 3880 8705 0.052 0.108 9 0 0 0 0
711	1510415 10 0 0 0 0 1 1 1 1 1
717	1510425 27 6091 6091 0.075361895796 0.075361895796 1 44 44 44 1936
720	1510452 27 6091 6091 0.075361895796 0.075361895796 1 45 45 45 2025
721	1510479 27 6094 6094 0.075361895796 0.075361895796 1 45 45 45 2025
722	1510506 848 1715 6280 0.024 0.078 50 0 0 0 0
724	1511354 459 1715 6114 0.024 0.076 27 0 0 0 0
728	1511813 50 3312 4205 0.045 0.055 3 1 3 6 14
729	1511863 350 1925 4326 0.026 0.056 20 1 20 210 2870
743	1512213 163 0 8415 0 0.105 10 1 2 19 37
749	1512376 26 3927 3927 0.05273845314 0.05273845314 1 44 44 44 1936
752	1512402 26 3927 3927 0.05273845314 0.05273845314 1 45 45 45 2025
753	1512428 78 3930 4992 0.05273845314 0.063 4 0 47 92 4234
754	1512506 34400 3753 169507 0.05 2.425 1899 0 0 0 0
755	1546906 51 4389 4988 0.057 0.063 3 0 0 0 0
756	1546957 34299 3753 169507 0.05 2.425 1893 0 0 0 0
760	1581256 17 3917 3917 0.052 0.052 1 1 1 1 1
775	1581273 10 0 0 0 0 1 1 1 1 1
781	1581283 27 7274 7274 0.091364573385 0.091364573385 1 44 44 44 1936
784	1581310 27 7274 7274 0.091364573385 0.091364573385 1 45 45 45 2025
785	1581337 79 7277 8182 0.091364573385 0.102 4 5 45 96 3756
786	1581416 52915 1212 169510 0.015 2.425 2911 0 0 0 0
787	1634331 51 7636 8178 0.096 0.102 3 0 0 0 0
788	1634382 51972 1212 169510 0.015 2.425 2855 0 0 0 0
792	1686354 531 1292 7474 0.017 0.093 30 1 30 465 9455
793	1686885 380 1354 7188 0.018 0.09 22 1 22 253 3795
807	1687265 10 0 0 0 0 1 1 1 1 1
813	1687275 27 1084 1084 0.013169782835 0.013169782835 1 44 44 44 1936
816	1687302 27 1084 1084 0.013169782835 0.013169782835 1 45 45 45 2025
817	1687329 27 1087 1087 0.013169782835 0.013169782835 1 45 45 45 2025
820	1687356 153 1118 4056 0.014 0.054 9 0 0 0 0
827	1687509 153 1118 4056 0.014 0.054 9 1 9 45 285
839	1687662 163 0 8416 0 0.105 10 1 2 19 37
845	1687825 27 1930 1930 0.026259455872 0.026259455872 1 44 44 44 1936
848	1687852 27 1930 1930 0.026259455872 0.026259455872 1 45 45 45 2025
849	1687879 27 1933 1933 0.026259455872 0.026259455872 1 45 45 45 2025
852	1687906 102 1961 3886 0.027 0.052 6 0 0 0 0
859	1688008 102 1961 3886 0.027 0.052 6 1 6 21 91
871	1688110 163 0 8417 0 0.105 10 1 2 19 37
877	1688273 27 2888 2888 0.040466304503 0.040466304503 1 44 44 44 1936
880	1688300 27 2888 2888 0.040466304503 0.040466304503 1 45 45 45 2025
881	1688327 27 2891 2891 0.040466304503 0.040466304503 1 45 45 45 2025
884	1688354 68 2920 4238 0.041 0.056 4 0 0 0 0
891	1688422 68 2920 4238 0.041 0.056 4 1 4 10 30
903	1688490 163 0 8418 0 0.105 10 1 2 19 37
909	1688653 27 4791 4791 0.061974657003 0.061974657003 1 44 44 44 1936
912	1688680 27 4791 4791 0.061974657003 0.061974657003 1 45 45 45 2025
913	1688707 27 4794 4794 0.061974657003 0.061974657003 1 45 45 45 2025
916	1688734 8702 4832 169291 0.062 2.422 473 0 0 0 0
922	1697436 9540 4832 169291 0.062 2.422 473 1 473 112101 35386549
935	1706976 10 0 0 0 0 1 1 1 1 1
941	1706986 27 6933 6933 0.086746254247 0.086746254247 1 44 44 44 1936
944	1707013 27 6933 6933 0.086746254247 0.086746254247 1 45 45 45 2025
945	1707040 79 6936 7739 0.086746254247 0.097 4 7 45 96 3492
946	1707119 17572 3646 169426 0.049 2.424 956 0 0 0 0
947	1724691 51 7240 7735 0.091 0.097 3 0 0 0 0
948	1724742 17353 3646 169426 0.049 2.424 943 0 0 0 0
952	1742095 152 3837 6926 0.051 0.086 9 1 9 45 285
967	1742247 10 0 0 0 0 1 1 1 1 1
973	1742257 27 2954 2954 0.041518176082 0.041518176082 1 44 44 44 1936
976	1742284 27 2954 2954 0.041518176082 0.041518176082 1 45 45 45 2025
977	1742311 27 2957 2957 0.041518176082 0.041518176082 1 45 45 45 2025
978	1742338 391 1652 5005 0.023 0.063 23 0 0 0 0
980	1742729 442 1652 5005 0.023 0.063 26 0 0 0 0
986	1743171 51 3019 3891 0.042 0.052 3 1 3 6 14
999	1743222 163 0 8419 0 0.105 10 1 2 19 37
1479	1743385 29 994 994 0.012270864309 0.012270864309 1 7504 7504 7504 56310016
1480	1743414 29 994 994 0.012270864309 0.012270864309 1 7504 7504 7504 56310016
1482	1743443 26 994 994 0.012270864309 0.012270864309 1 0 0 0 0
1493	1743469 26 994 994 0.012270864309 0.012270864309 1 0 0 0 0
1503	1743495 30 1081 1081 0.013169782835 0.013169782835 1 7504 7504 7504 56310016
1504	1743525 30 1081 1081 0.013169782835 0.013169782835 1 7504 7504 7504 56310016
1506	1743555 27 1081 1081 0.013169782835 0.013169782835 1 0 0 0 0
1517	1743582 27 1081 1081 0.013169782835 0.013169782835 1 0 0 0 0
1527	1743609 30 1089 1089 0.013528948517 0.013528948517 1 7504 7504 7504 56310016
1528	1743639 30 1089 1089 0.013528948517 0.013528948517 1 7504 7504 7504 56310016
1530	1743669 27 1089 1089 0.013528948517 0.013528948517 1 0 0 0 0
1541	1743696 27 1089 1089 0.013528948517 0.013528948517 1 0 0 0 0
1551	1743723 30 1569 1569 0.021843716542 0.021843716542 1 7504 7504 7504 56310016
1552	1743753 30 1569 1569 0.021843716542 0.021843716542 1 7504 7504 7504 56310016
1554	1743783 27 1569 1569 0.021843716542 0.021843716542 1 0 0 0 0
1565	1743810 27 1569 1569 0.021843716542 0.021843716542 1 0 0 0 0
1575	1743837 30 1718 1718 0.024352218178 0.024352218178 1 7504 7504 7504 56310016
1576	1743867 30 1718 1718 0.024352218178 0.024352218178 1 7504 7504 7504 56310016
1578	1743897 27 1718 1718 0.024352218178 0.024352218178 1 0 0 0 0
1589	1743924 27 1718 1718 0.024352218178 0.024352218178 1 0 0 0 0
1599	1743951 30 1814 1814 0.025271030879 0.025271030879 1 7504 7504 7504 56310016
1600	1743981 30 1814 1814 0.025271030879 0.025271030879 1 7504 7504 7504 56310016
1602	1744011 27 1814 1814 0.025271030879 0.025271030879 1 0 0 0 0
1613	1744038 27 1814 1814 0.025271030879 0.025271030879 1 0 0 0 0
1623	1744065 30 1927 1927 0.026259455872 0.026259455872 1 7504 7504 7504 56310016
1624	1744095 30 1927 1927 0.026259455872 0.026259455872 1 7504 7504 7504 56310016
1626	1744125 27 1927 1927 0.026259455872 0.026259455872 1 0 0 0 0
1637	1744152 27 1927 1927 0.026259455872 0.026259455872 1 0 0 0 0
1647	1744179 30 2334 2334 0.032546852513 0.032546852513 1 7504 7504 7504 56310016
1648	1744209 30 2334 2334 0.032546852513 0.032546852513 1 7504 7504 7504 56310016
1650	1744239 27 2334 2334 0.032546852513 0.032546852513 1 0 0 0 0
1661	1744266 27 2334 2334 0.032546852513 0.032546852513 1 0 0 0 0
1671	1744293 30 2428 2428 0.034129833705 0.034129833705 1 7504 7504 7504 56310016
1672	1744323 30 2428 2428 0.034129833705 0.034129833705 1 7504 7504 7504 56310016
1674	1744353 27 2428 2428 0.034129833705 0.034129833705 1 0 0 0 0
1685	1744380 27 2428 2428 0.034129833705 0.034129833705 1 0 0 0 0
1695	1744407 30 2436 2436 0.034439526021 0.034439526021 1 7504 7504 7504 56310016
1696	1744437 30 2436 2436 0.034439526021 0.034439526021 1 7504 7504 7504 56310016
1698	1744467 27 2436 2436 0.034439526021 0.034439526021 1 0 0 0 0
1709	1744494 27 2436 2436 0.034439526021 0.034439526021 1 0 0 0 0
1719	1744521 30 2672 2672 0.037261432968 0.037261432968 1 7504 7504 7504 56310016
1720	1744551 30 2672 2672 0.037261432968 0.037261432968 1 7504 7504 7504 56310016
1722	1744581 27 2672 2672 0.037261432968 0.037261432968 1 0 0 0 0
1733	1744608 27 2672 2672 0.037261432968 0.037261432968 1 0 0 0 0
1743	1744635 30 2885 2885 0.040466304503 0.040466304503 1 7504 7504 7504 56310016
1744	1744665 30 2885 2885 0.040466304503 0.040466304503 1 7504 7504 7504 56310016
1746	1744695 27 2885 2885 0.040466304503 0.040466304503 1 0 0 0 0
1757	1744722 27 2885 2885 0.040466304503 0.040466304503 1 0 0 0 0
1767	1744749 30 2951 2951 0.041518176082 0.041518176082 1 7504 7504 7504 56310016
1768	1744779 30 2951 2951 0.041518176082 0.041518176082 1 7504 7504 7504 56310016
1770	1744809 27 2951 2951 0.041518176082 0.041518176082 1 0 0 0 0
1781	1744836 27 2951 2951 0.041518176082 0.041518176082 1 0 0 0 0
1791	1744863 30 3458 3458 0.047532676856 0.047532676856 1 7504 7504 7504 56310016
1792	1744893 30 3458 3458 0.047532676856 0.047532676856 1 7504 7504 7504 56310016
1794	1744923 27 3458 3458 0.047532676856 0.047532676856 1 0 0 0 0
1805	1744950 27 3458 3458 0.047532676856 0.047532676856 1 0 0 0 0
1815	1744977 30 3557 3557 0.048413756283 0.048413756283 1 7504 7504 7504 56310016
1816	1745007 30 3557 3557 0.048413756283 0.048413756283 1 7504 7504 7504 56310016
1818	1745037 27 3557 3557 0.048413756283 0.048413756283 1 0 0 0 0
1829	1745064 27 3557 3557 0.048413756283 0.048413756283 1 0 0 0 0
1839	1745091 30 3843 3843 0.051566809383 0.051566809383 1 7504 7504 7504 56310016
1840	1745121 30 3843 3843 0.051566809383 0.051566809383 1 7504 7504 7504 56310016
1842	1745151 27 3843 3843 0.051566809383 0.051566809383 1 0 0 0 0
1853	1745178 27 3843 3843 0.051566809383 0.051566809383 1 0 0 0 0
1863	1745205 29 3924 3924 0.05273845314 0.05273845314 1 7504 7504 7504 56310016
1864	1745234 29 3924 3924 0.05273845314 0.05273845314 1 7504 7504 7504 56310016
1866	1745263 26 3924 3924 0.05273845314 0.05273845314 1 0 0 0 0
1877	1745289 26 3924 3924 0.05273845314 0.05273845314 1 0 0 0 0
1887	1745315 30 3932 3932 0.052847558425 0.052847558425 1 7504 7504 7504 56310016
1888	1745345 30 3932 3932 0.052847558425 0.052847558425 1 7504 7504 7504 56310016
1890	1745375 27 3932 3932 0.052847558425 0.052847558425 1 0 0 0 0
1901	1745402 27 3932 3932 0.052847558425 0.052847558425 1 0 0 0 0
1911	1745429 30 4492 4492 0.057084039294 0.057084039294 1 7504 7504 7504 56310016
1912	1745459 30 4492 4492 0.057084039294 0.057084039294 1 7504 7504 7504 56310016
1914	1745489 27 4492 4492 0.057084039294 0.057084039294 1 0 0 0 0
1925	1745516 27 4492 4492 0.057084039294 0.057084039294 1 0 0 0 0
1935	1745543 30 4780 4780 0.061955560849 0.061955560849 1 7504 7504 7504 56310016
1936	1745573 30 4780 4780 0.061955560849 0.061955560849 1 7504 7504 7504 56310016
1938	1745603 27 4780 4780 0.061955560849 0.061955560849 1 0 0 0 0
1949	1745630 27 4780 4780 0.061955560849 0.061955560849 1 0 0 0 0
1959	1745657 30 4788 4788 0.061974657003 0.061974657003 1 7504 7504 7504 56310016
1960	1745687 30 4788 4788 0.061974657003 0.061974657003 1 7504 7504 7504 56310016
1962	1745717 27 4788 4788 0.061974657003 0.061974657003 1 0 0 0 0
1973	1745744 27 4788 4788 0.061974657003 0.061974657003 1 0 0 0 0
1983	1745771 30 5085 5085 0.064453871725 0.064453871725 1 7504 7504 7504 56310016
1984	1745801 30 5085 5085 0.064453871725 0.064453871725 1 7504 7504 7504 56310016
1986	1745831 27 5085 5085 0.064453871725 0.064453871725 1 0 0 0 0
1997	1745858 27 5085 5085 0.064453871725 0.064453871725 1 0 0 0 0
2007	1745885 30 6088 6088 0.075361895796 0.075361895796 1 7504 7504 7504 56310016
2008	1745915 30 6088 6088 0.075361895796 0.075361895796 1 7504 7504 7504 56310016
2010	1745945 27 6088 6088 0.075361895796 0.075361895796 1 0 0 0 0
2021	1745972 27 6088 6088 0.075361895796 0.075361895796 1 0 0 0 0
2031	1745999 30 6930 6930 0.086746254247 0.086746254247 1 7504 7504 7504 56310016
2032	1746029 30 6930 6930 0.086746254247 0.086746254247 1 7504 7504 7504 56310016
2034	1746059 27 6930 6930 0.086746254247 0.086746254247 1 0 0 0 0
2045	1746086 27 6930 6930 0.086746254247 0.086746254247 1 0 0 0 0
2055	1746113 30 7271 7271 0.091364573385 0.091364573385 1 7504 7504 7504 56310016
2056	1746143 30 7271 7271 0.091364573385 0.091364573385 1 7504 7504 7504 56310016
2058	1746173 27 7271 7271 0.091364573385 0.091364573385 1 0 0 0 0
2069	1746200 27 7271 7271 0.091364573385 0.091364573385 1 0 0 0 0
