version 2
run CAIN-35-20200508-15:48:03-11184
attr configname CAIN
attr datetime 20200508-15:48:03
attr dist 200
attr experiment CAIN
attr extAllocType "\"RANDOM_ALLOC\""
attr inifile omnetpp.ini
attr iterationvars "$numUe=20, $pwr=-50, $dist=200, $mob=\"./movements/RPGM-0.0.movements\", $extAllocType=\"RANDOM_ALLOC\""
attr iterationvars2 "$numUe=20, $pwr=-50, $dist=200, $mob=\"./movements/RPGM-0.0.movements\", $extAllocType=\"RANDOM_ALLOC\", $repetition=0"
attr measurement "$numUe=20, $pwr=-50, $dist=200, $mob=\"./movements/RPGM-0.0.movements\", $extAllocType=\"RANDOM_ALLOC\""
attr mob "\"./movements/RPGM-0.0.movements\""
attr network lte.simulations.networks.CAIN
attr numUe 20
attr processid 11184
attr pwr -50
attr repetition 0
attr replication #0
attr resultdir results
attr runnumber 35
attr seedset 0
param **.**.amcMode "\"AUTO\""
param **.amcMode "\"D2D\""
param **.cainNetwork true
param **.channelControl.alpha 1.0
param **.channelControl.carrierFrequency 2100e+6Hz
param **.channelControl.pMax 10W
param **.d2dCqi 7
param **.deployer.numRbDl 50
param **.deployer.numRbUl 50
param **.distThresh ${dist=200}
param **.fbDelay 1
param **.feedbackComputation "xmldoc(\"config_channel.xml\")"
param **.mobility.constraintAreaMaxX 1000m
param **.mobility.constraintAreaMaxY 1000m
param **.mobility.constraintAreaMaxZ 0m
param **.mobility.constraintAreaMinX 0m
param **.mobility.constraintAreaMinY 0m
param **.mobility.constraintAreaMinZ 0m
param **.nic.phy.channelModel "xmldoc(\"config_channel.xml\")"
param **.numBands 50
param **.pwrThresh "${pwr= -50}"
param **.qtdThresh 3
param **.rbAllocationType "\"localized\""
param **.routingRecorder.enabled false
param **.tcpApp[*].tClose -1s
param **.ueD2DTx[*].mobility.changeAngleBy "normal(0deg, 30deg)"
param **.ueD2DTx[*].mobility.changeInterval "normal(5s, 0.1s)"
param **.ueD2DTx[*].mobility.nodeId -1
param **.ueD2DTx[*].mobility.speed "normal(2mps, 0.01mps)"
param **.ueD2DTx[*].mobility.traceFile "${mob=\"./movements/RWP-0.0.movements\",\"./movements/RWP-0.5.movements\",\"./movements/RPGM-0.0.movements\",\"./movements/RPGM-0.5.movements\",\"./movements/RWPRPGM-0.0.movements\",\"./movements/RWPRPGM-0.5.movements\"}"
param **.ueD2DTx[*].mobilityType "\"BonnMotionMobility\""
param **.usePreconfiguredTxParams false
param *.eNodeB*.numX2Apps 1
param *.eNodeB*.x2App[*].server.localPort "5000 + ancestorIndex(1)"
param *.eNodeB.d2dCapable false
param *.eNodeB.mobility.initFromDisplayString false
param *.eNodeB.mobility.initialX 300m
param *.eNodeB.mobility.initialY 300m
param *.eNodeB.nic.phy.enableD2DCqiReporting true
param *.eNodeB.txPower 19952.62315mw
param *.eNodeB.x2App[0].client.connectAddress "\"eNodeB1%x2ppp0\""
param *.eNodeB1.d2dCapable true
param *.eNodeB1.mobility.initFromDisplayString false
param *.eNodeB1.mobility.initialX 700m
param *.eNodeB1.mobility.initialY 300m
param *.eNodeB1.nic.phy.enableD2DCqiReporting true
param *.eNodeB1.txPower 19952.62315mw
param *.eNodeB1.x2App[0].client.connectAddress "\"eNodeB%x2ppp0\""
param *.extCell[*].bandAllocationType "${extAllocType=\"FULL_ALLOC\",\"RANDOM_ALLOC\",\"CONTIGUOUS_ALLOC\"}"
param *.extCell[*].bandUtilization 0.5
param *.extCell[*].txDirection "\"ANISOTROPIC\""
param *.extCell[*].txPower 20
param *.extCell[0].position_x 100m
param *.extCell[0].position_y 600m
param *.extCell[0].txAngle 315
param *.extCell[1].position_x 600m
param *.extCell[1].position_y 600m
param *.extCell[1].txAngle 225
param *.numExtCells 2
param *.numUeCell 0
param *.numUeD2DRx 1
param *.numUeD2DTx 1
param *.ue*.macCellId 1
param *.ue*.masterId 1
param *.ue*.mobility.initFromDisplayString false
param *.ue*[0].macCellId 1
param *.ue*[0].masterId 1
param *.ue*[0].mobility.initFromDisplayString false
param *.ueD2D*.numTcpApps 1
param *.ueD2D*[*].d2dCapable true
param *.ueD2D*[0].d2dCapable false
param *.ueD2D*[0].numTcpApps 1
param *.ueD2DRx[0].mobility.initialX 310m
param *.ueD2DRx[0].mobility.initialY 350m
param *.ueD2DRx[0].tcpApp[*].localPort 1000
param *.ueD2DRx[0].tcpApp[*].typename "\"TCPSinkApp\""
param *.ueD2DTx*.nic.d2dPeerAddresses "\"ueD2DTx[1]\""
param *.ueD2DTx*.tcpApp[*].connectAddress "\"ueD2DTx[0]\""
param *.ueD2DTx*.tcpApp[*].localAddress "\"ueD2DTx\""
param *.ueD2DTx*.tcpApp[*].localPort 1000
param *.ueD2DTx*.tcpApp[*].sendBytes 1GiB
param *.ueD2DTx*.tcpApp[*].typename "\"TCPSessionApp\""
param *.ueD2DTx*.tcpApp[0].active true
param *.ueD2DTx*.tcpApp[0].connectPort 1000
param *.ueD2DTx*.tcpApp[0].tOpen uniform(0.010s,0.1s)
param *.ueD2DTx*.tcpApp[0].tSend uniform(0.15s,0.5s)
param *.ueD2DTx[0].mobility.initialX 290m
param *.ueD2DTx[0].mobility.initialY 350m
param *.ueD2DTx[0].tcpApp[*].localPort 1000
param *.ueD2DTx[0].tcpApp[*].sendBytes 1GiB
param *.ueD2DTx[0].tcpApp[*].typename "\"TCPSessionApp\""
param *.ueD2DTx[0].tcpApp[0].active true
param *.ueD2DTx[0].tcpApp[0].connectAddress "\"ueD2DRx[0]\""
param *.ueD2DTx[0].tcpApp[0].connectPort 1000
param *.ueD2DTx[0].tcpApp[0].localAddress "\"ueD2DTx[0]\""
param *.ueD2DTx[0].tcpApp[0].tOpen uniform(0.010s,0.1s)
param *.ueD2DTx[0].tcpApp[0].tSend uniform(0.15s,0.5s)
param *.ueD2DTx[1].mobility.initialX 690m
param *.ueD2DTx[1].mobility.initialY 250m

vector 8  CAIN.server.ppp[0].queue  queueLength:vector  ETV
attr interpolationmode  sample-hold
attr title  "queue length, vector"
vector 9  CAIN.server.ppp[0].ppp  txState:vector  ETV
attr interpolationmode  sample-hold
attr title  "tx state, vector"
vector 24  CAIN.router.ppp[0].queue  queueLength:vector  ETV
attr interpolationmode  sample-hold
attr title  "queue length, vector"
vector 25  CAIN.router.ppp[0].ppp  txState:vector  ETV
attr interpolationmode  sample-hold
attr title  "tx state, vector"
vector 35  CAIN.router.ppp[1].queue  queueLength:vector  ETV
attr interpolationmode  sample-hold
attr title  "queue length, vector"
vector 36  CAIN.router.ppp[1].ppp  txState:vector  ETV
attr interpolationmode  sample-hold
attr title  "tx state, vector"
vector 56  CAIN.pgw.ppp[0].queue  queueLength:vector  ETV
attr interpolationmode  sample-hold
attr title  "queue length, vector"
vector 57  CAIN.pgw.ppp[0].ppp  txState:vector  ETV
attr interpolationmode  sample-hold
attr title  "tx state, vector"
vector 67  CAIN.pgw.ppp[1].queue  queueLength:vector  ETV
attr interpolationmode  sample-hold
attr title  "queue length, vector"
vector 68  CAIN.pgw.ppp[1].ppp  txState:vector  ETV
attr interpolationmode  sample-hold
attr title  "tx state, vector"
vector 78  CAIN.pgw.pppInterface.queue  queueLength:vector  ETV
attr interpolationmode  sample-hold
attr title  "queue length, vector"
vector 79  CAIN.pgw.pppInterface.ppp  txState:vector  ETV
attr interpolationmode  sample-hold
attr title  "tx state, vector"
vector 120  CAIN.eNodeB.pppIf.queue  queueLength:vector  ETV
attr interpolationmode  sample-hold
attr title  "queue length, vector"
vector 121  CAIN.eNodeB.pppIf.ppp  txState:vector  ETV
attr interpolationmode  sample-hold
attr title  "tx state, vector"
vector 131  CAIN.eNodeB.x2ppp[0].queue  queueLength:vector  ETV
attr interpolationmode  sample-hold
attr title  "queue length, vector"
vector 132  CAIN.eNodeB.x2ppp[0].ppp  txState:vector  ETV
attr interpolationmode  sample-hold
attr title  "tx state, vector"
vector 178  CAIN.eNodeB1.pppIf.queue  queueLength:vector  ETV
attr interpolationmode  sample-hold
attr title  "queue length, vector"
vector 179  CAIN.eNodeB1.pppIf.ppp  txState:vector  ETV
attr interpolationmode  sample-hold
attr title  "tx state, vector"
vector 189  CAIN.eNodeB1.x2ppp[0].queue  queueLength:vector  ETV
attr interpolationmode  sample-hold
attr title  "queue length, vector"
vector 190  CAIN.eNodeB1.x2ppp[0].ppp  txState:vector  ETV
attr interpolationmode  sample-hold
attr title  "tx state, vector"
vector 231  CAIN.ueD2DTx[0].nic.phy  servingCell:vector  ETV
attr source  servingCell
attr title  "ID of the serving eNodeB for the UE, vector"
attr unit  ""
vector 263  CAIN.ueD2DTx[1].nic.phy  servingCell:vector  ETV
attr source  servingCell
attr title  "ID of the serving eNodeB for the UE, vector"
attr unit  ""
vector 295  CAIN.ueD2DTx[2].nic.phy  servingCell:vector  ETV
attr source  servingCell
attr title  "ID of the serving eNodeB for the UE, vector"
attr unit  ""
vector 327  CAIN.ueD2DTx[3].nic.phy  servingCell:vector  ETV
attr source  servingCell
attr title  "ID of the serving eNodeB for the UE, vector"
attr unit  ""
vector 359  CAIN.ueD2DTx[4].nic.phy  servingCell:vector  ETV
attr source  servingCell
attr title  "ID of the serving eNodeB for the UE, vector"
attr unit  ""
vector 391  CAIN.ueD2DTx[5].nic.phy  servingCell:vector  ETV
attr source  servingCell
attr title  "ID of the serving eNodeB for the UE, vector"
attr unit  ""
vector 423  CAIN.ueD2DTx[6].nic.phy  servingCell:vector  ETV
attr source  servingCell
attr title  "ID of the serving eNodeB for the UE, vector"
attr unit  ""
vector 455  CAIN.ueD2DTx[7].nic.phy  servingCell:vector  ETV
attr source  servingCell
attr title  "ID of the serving eNodeB for the UE, vector"
attr unit  ""
vector 487  CAIN.ueD2DTx[8].nic.phy  servingCell:vector  ETV
attr source  servingCell
attr title  "ID of the serving eNodeB for the UE, vector"
attr unit  ""
vector 519  CAIN.ueD2DTx[9].nic.phy  servingCell:vector  ETV
attr source  servingCell
attr title  "ID of the serving eNodeB for the UE, vector"
attr unit  ""
vector 551  CAIN.ueD2DTx[10].nic.phy  servingCell:vector  ETV
attr source  servingCell
attr title  "ID of the serving eNodeB for the UE, vector"
attr unit  ""
vector 583  CAIN.ueD2DTx[11].nic.phy  servingCell:vector  ETV
attr source  servingCell
attr title  "ID of the serving eNodeB for the UE, vector"
attr unit  ""
vector 615  CAIN.ueD2DTx[12].nic.phy  servingCell:vector  ETV
attr source  servingCell
attr title  "ID of the serving eNodeB for the UE, vector"
attr unit  ""
vector 647  CAIN.ueD2DTx[13].nic.phy  servingCell:vector  ETV
attr source  servingCell
attr title  "ID of the serving eNodeB for the UE, vector"
attr unit  ""
vector 679  CAIN.ueD2DTx[14].nic.phy  servingCell:vector  ETV
attr source  servingCell
attr title  "ID of the serving eNodeB for the UE, vector"
attr unit  ""
vector 711  CAIN.ueD2DTx[15].nic.phy  servingCell:vector  ETV
attr source  servingCell
attr title  "ID of the serving eNodeB for the UE, vector"
attr unit  ""
vector 743  CAIN.ueD2DTx[16].nic.phy  servingCell:vector  ETV
attr source  servingCell
attr title  "ID of the serving eNodeB for the UE, vector"
attr unit  ""
vector 775  CAIN.ueD2DTx[17].nic.phy  servingCell:vector  ETV
attr source  servingCell
attr title  "ID of the serving eNodeB for the UE, vector"
attr unit  ""
vector 807  CAIN.ueD2DTx[18].nic.phy  servingCell:vector  ETV
attr source  servingCell
attr title  "ID of the serving eNodeB for the UE, vector"
attr unit  ""
vector 839  CAIN.ueD2DTx[19].nic.phy  servingCell:vector  ETV
attr source  servingCell
attr title  "ID of the serving eNodeB for the UE, vector"
attr unit  ""
vector 863  CAIN.eNodeB.sctp  "Throughput of Association 3"  ETV
vector 885  CAIN.eNodeB1.sctp  "Throughput of Association 4"  ETV
vector 907  CAIN.eNodeB.sctp  "Throughput of Association 1"  ETV
vector 927  CAIN.eNodeB.sctp  "Fast Recovery State 1:10.0.5.2"  ETV
vector 956  CAIN.eNodeB1.sctp  "Throughput of Association 2"  ETV
vector 976  CAIN.eNodeB1.sctp  "Fast Recovery State 2:10.0.5.1"  ETV
vector 128  CAIN.eNodeB.x2ppp[0].queue  rcvdPk:vector(packetBytes)  ETV
attr interpolationmode  none
attr title  "received packets, vector(packetBytes)"
vector 130  CAIN.eNodeB.x2ppp[0].queue  queueingTime:vector  ETV
attr interpolationmode  none
attr title  "queueing time, vector"
vector 186  CAIN.eNodeB1.x2ppp[0].queue  rcvdPk:vector(packetBytes)  ETV
attr interpolationmode  none
attr title  "received packets, vector(packetBytes)"
vector 188  CAIN.eNodeB1.x2ppp[0].queue  queueingTime:vector  ETV
attr interpolationmode  none
attr title  "queueing time, vector"
vector 137  CAIN.eNodeB.x2ppp[0].ppp  rcvdPkFromHL:vector(packetBytes)  ETV
attr interpolationmode  none
attr source  packetReceivedFromUpper
attr title  "packets received from higher layer, vector(packetBytes)"
vector 133  CAIN.eNodeB.x2ppp[0].ppp  txPk:vector(packetBytes)  ETV
attr interpolationmode  none
attr source  packetSentToLower
attr title  "packets transmitted, vector(packetBytes)"
vector 195  CAIN.eNodeB1.x2ppp[0].ppp  rcvdPkFromHL:vector(packetBytes)  ETV
attr interpolationmode  none
attr source  packetReceivedFromUpper
attr title  "packets received from higher layer, vector(packetBytes)"
vector 191  CAIN.eNodeB1.x2ppp[0].ppp  txPk:vector(packetBytes)  ETV
attr interpolationmode  none
attr source  packetSentToLower
attr title  "packets transmitted, vector(packetBytes)"
vector 192  CAIN.eNodeB1.x2ppp[0].ppp  rxPkOk:vector(packetBytes)  ETV
attr interpolationmode  none
attr source  rxPkOk
attr title  "packets received OK, vector(packetBytes)"
vector 196  CAIN.eNodeB1.x2ppp[0].ppp  passedUpPk:vector(packetBytes)  ETV
attr interpolationmode  none
attr source  packetSentToUpper
attr title  "packets passed to higher layer, vector(packetBytes)"
vector 134  CAIN.eNodeB.x2ppp[0].ppp  rxPkOk:vector(packetBytes)  ETV
attr interpolationmode  none
attr source  rxPkOk
attr title  "packets received OK, vector(packetBytes)"
vector 138  CAIN.eNodeB.x2ppp[0].ppp  passedUpPk:vector(packetBytes)  ETV
attr interpolationmode  none
attr source  packetSentToUpper
attr title  "packets passed to higher layer, vector(packetBytes)"
vector 1005  CAIN.eNodeB1.sctp  "Throughput of Association 4"  ETV
vector 882  CAIN.eNodeB1.sctp  "Peer Rwnd 4"  ETV
vector 1025  CAIN.eNodeB1.sctp  "Fast Recovery State 5:10.0.4.1"  ETV
vector 1052  CAIN.eNodeB1.sctp  "Fast Recovery State 5:10.0.2.2"  ETV
vector 1079  CAIN.eNodeB1.sctp  "Fast Recovery State 5:10.0.5.1"  ETV
vector 1108  CAIN.eNodeB.sctp  "Throughput of Association 3"  ETV
vector 860  CAIN.eNodeB.sctp  "Peer Rwnd 3"  ETV
vector 1128  CAIN.eNodeB.sctp  "Fast Recovery State 6:10.0.4.2"  ETV
vector 1155  CAIN.eNodeB.sctp  "Fast Recovery State 6:10.0.3.2"  ETV
vector 1182  CAIN.eNodeB.sctp  "Fast Recovery State 6:10.0.5.2"  ETV
vector 904  CAIN.eNodeB.sctp  "Peer Rwnd 1"  ETV
vector 1209  CAIN.eNodeB.sctp  "Fast Recovery State 1:10.0.4.2"  ETV
vector 1236  CAIN.eNodeB.sctp  "Fast Recovery State 1:10.0.3.2"  ETV
vector 953  CAIN.eNodeB1.sctp  "Peer Rwnd 2"  ETV
vector 1263  CAIN.eNodeB1.sctp  "Fast Recovery State 2:10.0.4.1"  ETV
vector 1290  CAIN.eNodeB1.sctp  "Fast Recovery State 2:10.0.2.2"  ETV
vector 1035  CAIN.eNodeB1.sctp  "Slow Start Threshold 5:10.0.2.2"  ETV
vector 1036  CAIN.eNodeB1.sctp  "Congestion Window 5:10.0.2.2"  ETV
vector 1037  CAIN.eNodeB1.sctp  "Bandwidth 5:10.0.2.2"  ETV
vector 1040  CAIN.eNodeB1.sctp  "HB Sent 5:10.0.2.2"  ETV
vector 1033  CAIN.eNodeB1.sctp  "RTO 5:10.0.2.2"  ETV
vector 1008  CAIN.eNodeB1.sctp  "Slow Start Threshold 5:10.0.4.1"  ETV
vector 1009  CAIN.eNodeB1.sctp  "Congestion Window 5:10.0.4.1"  ETV
vector 1010  CAIN.eNodeB1.sctp  "Bandwidth 5:10.0.4.1"  ETV
vector 1013  CAIN.eNodeB1.sctp  "HB Sent 5:10.0.4.1"  ETV
vector 1006  CAIN.eNodeB1.sctp  "RTO 5:10.0.4.1"  ETV
vector 1062  CAIN.eNodeB1.sctp  "Slow Start Threshold 5:10.0.5.1"  ETV
vector 1063  CAIN.eNodeB1.sctp  "Congestion Window 5:10.0.5.1"  ETV
vector 1064  CAIN.eNodeB1.sctp  "Bandwidth 5:10.0.5.1"  ETV
vector 1060  CAIN.eNodeB1.sctp  "RTO 5:10.0.5.1"  ETV
vector 1138  CAIN.eNodeB.sctp  "Slow Start Threshold 6:10.0.3.2"  ETV
vector 1139  CAIN.eNodeB.sctp  "Congestion Window 6:10.0.3.2"  ETV
vector 1140  CAIN.eNodeB.sctp  "Bandwidth 6:10.0.3.2"  ETV
vector 1143  CAIN.eNodeB.sctp  "HB Sent 6:10.0.3.2"  ETV
vector 1136  CAIN.eNodeB.sctp  "RTO 6:10.0.3.2"  ETV
vector 1111  CAIN.eNodeB.sctp  "Slow Start Threshold 6:10.0.4.2"  ETV
vector 1112  CAIN.eNodeB.sctp  "Congestion Window 6:10.0.4.2"  ETV
vector 1113  CAIN.eNodeB.sctp  "Bandwidth 6:10.0.4.2"  ETV
vector 1116  CAIN.eNodeB.sctp  "HB Sent 6:10.0.4.2"  ETV
vector 1109  CAIN.eNodeB.sctp  "RTO 6:10.0.4.2"  ETV
vector 1165  CAIN.eNodeB.sctp  "Slow Start Threshold 6:10.0.5.2"  ETV
vector 1166  CAIN.eNodeB.sctp  "Congestion Window 6:10.0.5.2"  ETV
vector 1167  CAIN.eNodeB.sctp  "Bandwidth 6:10.0.5.2"  ETV
vector 1163  CAIN.eNodeB.sctp  "RTO 6:10.0.5.2"  ETV
vector 916  CAIN.eNodeB.sctp  "HB ACK Sent 1:10.0.5.2"  ETV
vector 917  CAIN.eNodeB.sctp  "HB Received 1:10.0.5.2"  ETV
vector 965  CAIN.eNodeB1.sctp  "HB ACK Sent 2:10.0.5.1"  ETV
vector 966  CAIN.eNodeB1.sctp  "HB Received 2:10.0.5.1"  ETV
vector 1219  CAIN.eNodeB.sctp  "Slow Start Threshold 1:10.0.3.2"  ETV
vector 1220  CAIN.eNodeB.sctp  "Congestion Window 1:10.0.3.2"  ETV
vector 1221  CAIN.eNodeB.sctp  "Bandwidth 1:10.0.3.2"  ETV
vector 1224  CAIN.eNodeB.sctp  "HB Sent 1:10.0.3.2"  ETV
vector 1217  CAIN.eNodeB.sctp  "RTO 1:10.0.3.2"  ETV
vector 1192  CAIN.eNodeB.sctp  "Slow Start Threshold 1:10.0.4.2"  ETV
vector 1193  CAIN.eNodeB.sctp  "Congestion Window 1:10.0.4.2"  ETV
vector 1194  CAIN.eNodeB.sctp  "Bandwidth 1:10.0.4.2"  ETV
vector 1197  CAIN.eNodeB.sctp  "HB Sent 1:10.0.4.2"  ETV
vector 1190  CAIN.eNodeB.sctp  "RTO 1:10.0.4.2"  ETV
vector 910  CAIN.eNodeB.sctp  "Slow Start Threshold 1:10.0.5.2"  ETV
vector 911  CAIN.eNodeB.sctp  "Congestion Window 1:10.0.5.2"  ETV
vector 912  CAIN.eNodeB.sctp  "Bandwidth 1:10.0.5.2"  ETV
vector 908  CAIN.eNodeB.sctp  "RTO 1:10.0.5.2"  ETV
vector 1273  CAIN.eNodeB1.sctp  "Slow Start Threshold 2:10.0.2.2"  ETV
vector 1274  CAIN.eNodeB1.sctp  "Congestion Window 2:10.0.2.2"  ETV
vector 1275  CAIN.eNodeB1.sctp  "Bandwidth 2:10.0.2.2"  ETV
vector 1278  CAIN.eNodeB1.sctp  "HB Sent 2:10.0.2.2"  ETV
vector 1271  CAIN.eNodeB1.sctp  "RTO 2:10.0.2.2"  ETV
vector 1246  CAIN.eNodeB1.sctp  "Slow Start Threshold 2:10.0.4.1"  ETV
vector 1247  CAIN.eNodeB1.sctp  "Congestion Window 2:10.0.4.1"  ETV
vector 1248  CAIN.eNodeB1.sctp  "Bandwidth 2:10.0.4.1"  ETV
vector 1251  CAIN.eNodeB1.sctp  "HB Sent 2:10.0.4.1"  ETV
vector 1244  CAIN.eNodeB1.sctp  "RTO 2:10.0.4.1"  ETV
vector 959  CAIN.eNodeB1.sctp  "Slow Start Threshold 2:10.0.5.1"  ETV
vector 960  CAIN.eNodeB1.sctp  "Congestion Window 2:10.0.5.1"  ETV
vector 961  CAIN.eNodeB1.sctp  "Bandwidth 2:10.0.5.1"  ETV
vector 957  CAIN.eNodeB1.sctp  "RTO 2:10.0.5.1"  ETV
vector 1173  CAIN.eNodeB.sctp  "HB ACK Received 6:10.0.5.2"  ETV
vector 1164  CAIN.eNodeB.sctp  "RTT 6:10.0.5.2"  ETV
vector 1070  CAIN.eNodeB1.sctp  "HB ACK Received 5:10.0.5.1"  ETV
vector 1061  CAIN.eNodeB1.sctp  "RTT 5:10.0.5.1"  ETV
vector 1171  CAIN.eNodeB.sctp  "HB ACK Sent 6:10.0.5.2"  ETV
vector 1172  CAIN.eNodeB.sctp  "HB Received 6:10.0.5.2"  ETV
vector 1068  CAIN.eNodeB1.sctp  "HB ACK Sent 5:10.0.5.1"  ETV
vector 1069  CAIN.eNodeB1.sctp  "HB Received 5:10.0.5.1"  ETV
vector 967  CAIN.eNodeB1.sctp  "HB ACK Received 2:10.0.5.1"  ETV
vector 958  CAIN.eNodeB1.sctp  "RTT 2:10.0.5.1"  ETV
vector 918  CAIN.eNodeB.sctp  "HB ACK Received 1:10.0.5.2"  ETV
vector 909  CAIN.eNodeB.sctp  "RTT 1:10.0.5.2"  ETV
vector 96  CAIN.eNodeB.nic.mac  receivedPacketFromLowerLayer:vector(packetBytes)  ETV
attr interpolationmode  none
attr source  receivedPacketFromLowerLayer
vector 1305  CAIN.eNodeB.sctp  "SendQueue of Association 6"  ETV
vector 1168  CAIN.eNodeB.sctp  "TSN Sent 6:10.0.5.2"  ETV
vector 1175  CAIN.eNodeB.sctp  "Outstanding Bytes 6:10.0.5.2"  ETV
vector 848  CAIN.eNodeB.sctp  "Outstanding Bytes 3:Total"  ETV
vector 1174  CAIN.eNodeB.sctp  "Queued Sent Bytes 6:10.0.5.2"  ETV
vector 847  CAIN.eNodeB.sctp  "Queued Sent Bytes 3:Total"  ETV
vector 963  CAIN.eNodeB1.sctp  "TSN Received 2:10.0.5.1"  ETV
vector 939  CAIN.eNodeB1.sctp  "Queued Received Bytes 2:Total"  ETV
vector 935  CAIN.eNodeB1.sctp  "Advertised Receiver Window 2"  ETV
vector 944  CAIN.eNodeB1.sctp  "Number of Total Gap Blocks Stored 2"  ETV
vector 945  CAIN.eNodeB1.sctp  "Number of Revokable Gap Blocks Stored 2"  ETV
vector 946  CAIN.eNodeB1.sctp  "Number of Non-Revokable Gap Blocks Stored 2"  ETV
vector 947  CAIN.eNodeB1.sctp  "Number of Duplicate TSNs Stored 2"  ETV
vector 951  CAIN.eNodeB1.sctp  "Length of SACK Sent 2"  ETV
vector 948  CAIN.eNodeB1.sctp  "Number of Revokable Gap Blocks Sent 2"  ETV
vector 949  CAIN.eNodeB1.sctp  "Number of Non-Revokable Gap Blocks Sent 2"  ETV
vector 950  CAIN.eNodeB1.sctp  "Number of Duplicate TSNs Sent 2"  ETV
vector 955  CAIN.eNodeB1.sctp  "End to End Delay of Association 2"  ETV
vector 199  CAIN.eNodeB1.x2App[0].client  rcvdPk:vector(packetBytes)  ETV
attr interpolationmode  none
attr source  rcvdPk
attr title  "packets received, vector(packetBytes)"
vector 1304  CAIN.eNodeB.sctp  "Number of Gap Blocks in Last SACK of Association 6"  ETV
vector 849  CAIN.eNodeB.sctp  "Number of Revokable Gap Blocks in SACK 3"  ETV
vector 850  CAIN.eNodeB.sctp  "Number of Non-Revokable Gap Blocks in SACK 3"  ETV
vector 1185  CAIN.eNodeB.sctp  "TSN Acked CumAck 6:10.0.5.2"  ETV
vector 1151  CAIN.eNodeB.sctp  "Number of Gap Acked Chunks in Last SACK 6:10.0.3.2"  ETV
vector 1152  CAIN.eNodeB.sctp  "Number of Non-Revokable Gap Acked Chunks in Last SACK 6:10.0.3.2"  ETV
vector 1153  CAIN.eNodeB.sctp  "Number of Gap Missed Chunks in Last SACK 6:10.0.3.2"  ETV
vector 1124  CAIN.eNodeB.sctp  "Number of Gap Acked Chunks in Last SACK 6:10.0.4.2"  ETV
vector 1125  CAIN.eNodeB.sctp  "Number of Non-Revokable Gap Acked Chunks in Last SACK 6:10.0.4.2"  ETV
vector 1126  CAIN.eNodeB.sctp  "Number of Gap Missed Chunks in Last SACK 6:10.0.4.2"  ETV
vector 1178  CAIN.eNodeB.sctp  "Number of Gap Acked Chunks in Last SACK 6:10.0.5.2"  ETV
vector 1179  CAIN.eNodeB.sctp  "Number of Non-Revokable Gap Acked Chunks in Last SACK 6:10.0.5.2"  ETV
vector 1180  CAIN.eNodeB.sctp  "Number of Gap Missed Chunks in Last SACK 6:10.0.5.2"  ETV
vector 859  CAIN.eNodeB.sctp  "Arwnd in Last SACK 3"  ETV
vector 1187  CAIN.eNodeB.sctp  "TSN PseudoCumAck 6:10.0.5.2"  ETV
vector 1188  CAIN.eNodeB.sctp  "TSN RTXPseudoCumAck 6:10.0.5.2"  ETV
vector 1181  CAIN.eNodeB.sctp  "Partial Bytes Acked 6:10.0.5.2"  ETV
vector 1333  CAIN.ueD2DTx[13].tcp  tcpRcvQueueBytes  ETV
vector 1320  CAIN.ueD2DTx[13].tcp  "advertised window"  ETV
vector 1319  CAIN.ueD2DTx[13].tcp  "receive window"  ETV
vector 1322  CAIN.ueD2DTx[13].tcp  "sent ack"  ETV
vector 621  CAIN.ueD2DTx[13].nic.pdcpRrc  receivedPacketFromUpperLayer:vector(packetBytes)  ETV
attr interpolationmode  none
attr source  receivedPacketFromUpperLayer
vector 624  CAIN.ueD2DTx[13].nic.pdcpRrc  sentPacketToLowerLayer:vector(packetBytes)  ETV
attr interpolationmode  none
attr source  sentPacketToLowerLayer
vector 625  CAIN.ueD2DTx[13].nic.mac  receivedPacketFromUpperLayer:vector(packetBytes)  ETV
attr interpolationmode  none
attr source  receivedPacketFromUpperLayer
vector 635  CAIN.ueD2DTx[13].nic.mac  CainHopMessageSent:vector  ETV
attr interpolationmode  none
attr title  "# of Sent CAIN hop message, vector"
vector 628  CAIN.ueD2DTx[13].nic.mac  sentPacketToLowerLayer:vector(packetBytes)  ETV
attr interpolationmode  none
attr source  sentPacketToLowerLayer
vector 1357  CAIN.ueD2DTx[19].tcp  tcpRcvQueueBytes  ETV
vector 1344  CAIN.ueD2DTx[19].tcp  "advertised window"  ETV
vector 1343  CAIN.ueD2DTx[19].tcp  "receive window"  ETV
vector 1346  CAIN.ueD2DTx[19].tcp  "sent ack"  ETV
vector 813  CAIN.ueD2DTx[19].nic.pdcpRrc  receivedPacketFromUpperLayer:vector(packetBytes)  ETV
attr interpolationmode  none
attr source  receivedPacketFromUpperLayer
vector 816  CAIN.ueD2DTx[19].nic.pdcpRrc  sentPacketToLowerLayer:vector(packetBytes)  ETV
attr interpolationmode  none
attr source  sentPacketToLowerLayer
vector 817  CAIN.ueD2DTx[19].nic.mac  receivedPacketFromUpperLayer:vector(packetBytes)  ETV
attr interpolationmode  none
attr source  receivedPacketFromUpperLayer
vector 1381  CAIN.ueD2DTx[12].tcp  tcpRcvQueueBytes  ETV
vector 1368  CAIN.ueD2DTx[12].tcp  "advertised window"  ETV
vector 1367  CAIN.ueD2DTx[12].tcp  "receive window"  ETV
vector 1370  CAIN.ueD2DTx[12].tcp  "sent ack"  ETV
vector 589  CAIN.ueD2DTx[12].nic.pdcpRrc  receivedPacketFromUpperLayer:vector(packetBytes)  ETV
attr interpolationmode  none
attr source  receivedPacketFromUpperLayer
vector 592  CAIN.ueD2DTx[12].nic.pdcpRrc  sentPacketToLowerLayer:vector(packetBytes)  ETV
attr interpolationmode  none
attr source  sentPacketToLowerLayer
vector 593  CAIN.ueD2DTx[12].nic.mac  receivedPacketFromUpperLayer:vector(packetBytes)  ETV
attr interpolationmode  none
attr source  receivedPacketFromUpperLayer
vector 603  CAIN.ueD2DTx[12].nic.mac  CainHopMessageSent:vector  ETV
attr interpolationmode  none
attr title  "# of Sent CAIN hop message, vector"
vector 596  CAIN.ueD2DTx[12].nic.mac  sentPacketToLowerLayer:vector(packetBytes)  ETV
attr interpolationmode  none
attr source  sentPacketToLowerLayer
vector 827  CAIN.ueD2DTx[19].nic.mac  CainHopMessageSent:vector  ETV
attr interpolationmode  none
attr title  "# of Sent CAIN hop message, vector"
vector 820  CAIN.ueD2DTx[19].nic.mac  sentPacketToLowerLayer:vector(packetBytes)  ETV
attr interpolationmode  none
attr source  sentPacketToLowerLayer
vector 210  CAIN.ueD2DTx[0].nic.mac  receivedPacketFromLowerLayer:vector(packetBytes)  ETV
attr interpolationmode  none
attr source  receivedPacketFromLowerLayer
vector 212  CAIN.ueD2DTx[0].nic.mac  sentPacketToLowerLayer:vector(packetBytes)  ETV
attr interpolationmode  none
attr source  sentPacketToLowerLayer
vector 242  CAIN.ueD2DTx[1].nic.mac  receivedPacketFromLowerLayer:vector(packetBytes)  ETV
attr interpolationmode  none
attr source  receivedPacketFromLowerLayer
vector 244  CAIN.ueD2DTx[1].nic.mac  sentPacketToLowerLayer:vector(packetBytes)  ETV
attr interpolationmode  none
attr source  sentPacketToLowerLayer
vector 274  CAIN.ueD2DTx[2].nic.mac  receivedPacketFromLowerLayer:vector(packetBytes)  ETV
attr interpolationmode  none
attr source  receivedPacketFromLowerLayer
vector 276  CAIN.ueD2DTx[2].nic.mac  sentPacketToLowerLayer:vector(packetBytes)  ETV
attr interpolationmode  none
attr source  sentPacketToLowerLayer
vector 111  CAIN.eNodeB.nic.mac  racpkt:vector  ETV
attr interpolationmode  none
attr title  "eNB received racpkt message, vector"
vector 112  CAIN.eNodeB.nic.mac  racDistanceSignal:vector  ETV
attr interpolationmode  none
attr title  "Rac distance to enb, vector"
vector 113  CAIN.eNodeB.nic.mac  racServedDevsSignal:vector  ETV
attr interpolationmode  none
attr title  "# of devices served on rac arriavall, vector"
vector 106  CAIN.eNodeB.nic.mac  DistanceSignal:vector  ETV
attr interpolationmode  none
attr title  "Distance to enb, vector"
vector 101  CAIN.eNodeB.nic.mac  CainHopMessage:vector  ETV
attr interpolationmode  none
attr title  "eNB received CAIN hop message, vector"
vector 98  CAIN.eNodeB.nic.mac  sentPacketToLowerLayer:vector(packetBytes)  ETV
attr interpolationmode  none
attr source  sentPacketToLowerLayer
vector 249  CAIN.ueD2DTx[1].nic.mac  DropedHopMessage:vector  ETV
attr interpolationmode  none
attr title  "Droped Hop CAIN message due to RB not available, vector"
vector 281  CAIN.ueD2DTx[2].nic.mac  DropedHopMessage:vector  ETV
attr interpolationmode  none
attr title  "Droped Hop CAIN message due to RB not available, vector"
vector 1405  CAIN.ueD2DTx[11].tcp  tcpRcvQueueBytes  ETV
vector 1392  CAIN.ueD2DTx[11].tcp  "advertised window"  ETV
vector 1391  CAIN.ueD2DTx[11].tcp  "receive window"  ETV
vector 1394  CAIN.ueD2DTx[11].tcp  "sent ack"  ETV
vector 557  CAIN.ueD2DTx[11].nic.pdcpRrc  receivedPacketFromUpperLayer:vector(packetBytes)  ETV
attr interpolationmode  none
attr source  receivedPacketFromUpperLayer
vector 560  CAIN.ueD2DTx[11].nic.pdcpRrc  sentPacketToLowerLayer:vector(packetBytes)  ETV
attr interpolationmode  none
attr source  sentPacketToLowerLayer
vector 561  CAIN.ueD2DTx[11].nic.mac  receivedPacketFromUpperLayer:vector(packetBytes)  ETV
attr interpolationmode  none
attr source  receivedPacketFromUpperLayer
vector 570  CAIN.ueD2DTx[11].nic.mac  CainMessageSent:vector  ETV
attr interpolationmode  none
attr title  "# of Sent CAIN message, vector"
vector 564  CAIN.ueD2DTx[11].nic.mac  sentPacketToLowerLayer:vector(packetBytes)  ETV
attr interpolationmode  none
attr source  sentPacketToLowerLayer
vector 434  CAIN.ueD2DTx[7].nic.mac  receivedPacketFromLowerLayer:vector(packetBytes)  ETV
attr interpolationmode  none
attr source  receivedPacketFromLowerLayer
vector 436  CAIN.ueD2DTx[7].nic.mac  sentPacketToLowerLayer:vector(packetBytes)  ETV
attr interpolationmode  none
attr source  sentPacketToLowerLayer
vector 100  CAIN.eNodeB.nic.mac  CainMessage:vector  ETV
attr interpolationmode  none
attr title  "eNB received CAIN message, vector"
vector 1429  CAIN.ueD2DTx[7].tcp  tcpRcvQueueBytes  ETV
vector 1416  CAIN.ueD2DTx[7].tcp  "advertised window"  ETV
vector 1415  CAIN.ueD2DTx[7].tcp  "receive window"  ETV
vector 1418  CAIN.ueD2DTx[7].tcp  "sent ack"  ETV
vector 429  CAIN.ueD2DTx[7].nic.pdcpRrc  receivedPacketFromUpperLayer:vector(packetBytes)  ETV
attr interpolationmode  none
attr source  receivedPacketFromUpperLayer
vector 432  CAIN.ueD2DTx[7].nic.pdcpRrc  sentPacketToLowerLayer:vector(packetBytes)  ETV
attr interpolationmode  none
attr source  sentPacketToLowerLayer
vector 433  CAIN.ueD2DTx[7].nic.mac  receivedPacketFromUpperLayer:vector(packetBytes)  ETV
attr interpolationmode  none
attr source  receivedPacketFromUpperLayer
vector 440  CAIN.ueD2DTx[7].nic.mac  DropedCainMessage:vector  ETV
attr interpolationmode  none
attr title  "Droped CAIN message due to RB not available, vector"
vector 1453  CAIN.ueD2DTx[6].tcp  tcpRcvQueueBytes  ETV
vector 1440  CAIN.ueD2DTx[6].tcp  "advertised window"  ETV
vector 1439  CAIN.ueD2DTx[6].tcp  "receive window"  ETV
vector 1442  CAIN.ueD2DTx[6].tcp  "sent ack"  ETV
vector 397  CAIN.ueD2DTx[6].nic.pdcpRrc  receivedPacketFromUpperLayer:vector(packetBytes)  ETV
attr interpolationmode  none
attr source  receivedPacketFromUpperLayer
vector 400  CAIN.ueD2DTx[6].nic.pdcpRrc  sentPacketToLowerLayer:vector(packetBytes)  ETV
attr interpolationmode  none
attr source  sentPacketToLowerLayer
vector 401  CAIN.ueD2DTx[6].nic.mac  receivedPacketFromUpperLayer:vector(packetBytes)  ETV
attr interpolationmode  none
attr source  receivedPacketFromUpperLayer
vector 410  CAIN.ueD2DTx[6].nic.mac  CainMessageSent:vector  ETV
attr interpolationmode  none
attr title  "# of Sent CAIN message, vector"
vector 404  CAIN.ueD2DTx[6].nic.mac  sentPacketToLowerLayer:vector(packetBytes)  ETV
attr interpolationmode  none
attr source  sentPacketToLowerLayer
vector 466  CAIN.ueD2DTx[8].nic.mac  receivedPacketFromLowerLayer:vector(packetBytes)  ETV
attr interpolationmode  none
attr source  receivedPacketFromLowerLayer
vector 468  CAIN.ueD2DTx[8].nic.mac  sentPacketToLowerLayer:vector(packetBytes)  ETV
attr interpolationmode  none
attr source  sentPacketToLowerLayer
vector 435  CAIN.ueD2DTx[7].nic.mac  sentPacketToUpperLayer:vector(packetBytes)  ETV
attr interpolationmode  none
attr source  sentPacketToUpperLayer
vector 472  CAIN.ueD2DTx[8].nic.mac  DropedCainMessage:vector  ETV
attr interpolationmode  none
attr title  "Droped CAIN message due to RB not available, vector"
vector 115  CAIN.eNodeB.nic.phy  averageCqiUlvect:vector  ETV
attr source  averageCqiUlvect
attr title  "Average Cqi reported in UL, vector"
attr unit  cqi
vector 108  CAIN.eNodeB.nic.mac  ServedDevs:vector  ETV
attr interpolationmode  none
attr title  "# of devices served on cain forwarding, vector"
vector 1477  CAIN.ueD2DTx[2].tcp  tcpRcvQueueBytes  ETV
vector 1464  CAIN.ueD2DTx[2].tcp  "advertised window"  ETV
vector 1463  CAIN.ueD2DTx[2].tcp  "receive window"  ETV
vector 1466  CAIN.ueD2DTx[2].tcp  "sent ack"  ETV
vector 269  CAIN.ueD2DTx[2].nic.pdcpRrc  receivedPacketFromUpperLayer:vector(packetBytes)  ETV
attr interpolationmode  none
attr source  receivedPacketFromUpperLayer
vector 272  CAIN.ueD2DTx[2].nic.pdcpRrc  sentPacketToLowerLayer:vector(packetBytes)  ETV
attr interpolationmode  none
attr source  sentPacketToLowerLayer
vector 273  CAIN.ueD2DTx[2].nic.mac  receivedPacketFromUpperLayer:vector(packetBytes)  ETV
attr interpolationmode  none
attr source  receivedPacketFromUpperLayer
vector 99  CAIN.eNodeB.nic.mac  measuredItbs:vector  ETV
attr source  measuredItbs
attr title  "TBS index, vector"
attr unit  ""
vector 1501  CAIN.ueD2DTx[10].tcp  tcpRcvQueueBytes  ETV
vector 1488  CAIN.ueD2DTx[10].tcp  "advertised window"  ETV
vector 1487  CAIN.ueD2DTx[10].tcp  "receive window"  ETV
vector 1490  CAIN.ueD2DTx[10].tcp  "sent ack"  ETV
vector 525  CAIN.ueD2DTx[10].nic.pdcpRrc  receivedPacketFromUpperLayer:vector(packetBytes)  ETV
attr interpolationmode  none
attr source  receivedPacketFromUpperLayer
vector 528  CAIN.ueD2DTx[10].nic.pdcpRrc  sentPacketToLowerLayer:vector(packetBytes)  ETV
attr interpolationmode  none
attr source  sentPacketToLowerLayer
vector 529  CAIN.ueD2DTx[10].nic.mac  receivedPacketFromUpperLayer:vector(packetBytes)  ETV
attr interpolationmode  none
attr source  receivedPacketFromUpperLayer
vector 1525  CAIN.ueD2DTx[14].tcp  tcpRcvQueueBytes  ETV
vector 1512  CAIN.ueD2DTx[14].tcp  "advertised window"  ETV
vector 1511  CAIN.ueD2DTx[14].tcp  "receive window"  ETV
vector 1514  CAIN.ueD2DTx[14].tcp  "sent ack"  ETV
vector 653  CAIN.ueD2DTx[14].nic.pdcpRrc  receivedPacketFromUpperLayer:vector(packetBytes)  ETV
attr interpolationmode  none
attr source  receivedPacketFromUpperLayer
vector 656  CAIN.ueD2DTx[14].nic.pdcpRrc  sentPacketToLowerLayer:vector(packetBytes)  ETV
attr interpolationmode  none
attr source  sentPacketToLowerLayer
vector 657  CAIN.ueD2DTx[14].nic.mac  receivedPacketFromUpperLayer:vector(packetBytes)  ETV
attr interpolationmode  none
attr source  receivedPacketFromUpperLayer
vector 538  CAIN.ueD2DTx[10].nic.mac  CainMessageSent:vector  ETV
attr interpolationmode  none
attr title  "# of Sent CAIN message, vector"
vector 532  CAIN.ueD2DTx[10].nic.mac  sentPacketToLowerLayer:vector(packetBytes)  ETV
attr interpolationmode  none
attr source  sentPacketToLowerLayer
vector 667  CAIN.ueD2DTx[14].nic.mac  CainHopMessageSent:vector  ETV
attr interpolationmode  none
attr title  "# of Sent CAIN hop message, vector"
vector 660  CAIN.ueD2DTx[14].nic.mac  sentPacketToLowerLayer:vector(packetBytes)  ETV
attr interpolationmode  none
attr source  sentPacketToLowerLayer
vector 1549  CAIN.ueD2DTx[4].tcp  tcpRcvQueueBytes  ETV
vector 1536  CAIN.ueD2DTx[4].tcp  "advertised window"  ETV
vector 1535  CAIN.ueD2DTx[4].tcp  "receive window"  ETV
vector 1538  CAIN.ueD2DTx[4].tcp  "sent ack"  ETV
vector 333  CAIN.ueD2DTx[4].nic.pdcpRrc  receivedPacketFromUpperLayer:vector(packetBytes)  ETV
attr interpolationmode  none
attr source  receivedPacketFromUpperLayer
vector 336  CAIN.ueD2DTx[4].nic.pdcpRrc  sentPacketToLowerLayer:vector(packetBytes)  ETV
attr interpolationmode  none
attr source  sentPacketToLowerLayer
vector 337  CAIN.ueD2DTx[4].nic.mac  receivedPacketFromUpperLayer:vector(packetBytes)  ETV
attr interpolationmode  none
attr source  receivedPacketFromUpperLayer
vector 347  CAIN.ueD2DTx[4].nic.mac  CainHopMessageSent:vector  ETV
attr interpolationmode  none
attr title  "# of Sent CAIN hop message, vector"
vector 340  CAIN.ueD2DTx[4].nic.mac  sentPacketToLowerLayer:vector(packetBytes)  ETV
attr interpolationmode  none
attr source  sentPacketToLowerLayer
vector 97  CAIN.eNodeB.nic.mac  sentPacketToUpperLayer:vector(packetBytes)  ETV
attr interpolationmode  none
attr source  sentPacketToUpperLayer
vector 92  CAIN.eNodeB.nic.pdcpRrc  receivedPacketFromLowerLayer:vector(packetBytes)  ETV
attr interpolationmode  none
attr source  receivedPacketFromLowerLayer
vector 93  CAIN.eNodeB.nic.pdcpRrc  sentPacketToUpperLayer:vector(packetBytes)  ETV
attr interpolationmode  none
attr source  sentPacketToUpperLayer
vector 91  CAIN.eNodeB.nic.pdcpRrc  receivedPacketFromUpperLayer:vector(packetBytes)  ETV
attr interpolationmode  none
attr source  receivedPacketFromUpperLayer
vector 94  CAIN.eNodeB.nic.pdcpRrc  sentPacketToLowerLayer:vector(packetBytes)  ETV
attr interpolationmode  none
attr source  sentPacketToLowerLayer
vector 95  CAIN.eNodeB.nic.mac  receivedPacketFromUpperLayer:vector(packetBytes)  ETV
attr interpolationmode  none
attr source  receivedPacketFromUpperLayer
vector 109  CAIN.eNodeB.nic.mac  ServedHopDevs:vector  ETV
attr interpolationmode  none
attr title  "# of devices served on hop forwarding, vector"
vector 228  CAIN.ueD2DTx[0].nic.phy  averageCqiDlvect:vector  ETV
attr source  averageCqiDlvect
attr title  "Average Cqi reported in DL, vector"
attr unit  cqi
vector 275  CAIN.ueD2DTx[2].nic.mac  sentPacketToUpperLayer:vector(packetBytes)  ETV
attr interpolationmode  none
attr source  sentPacketToUpperLayer
vector 211  CAIN.ueD2DTx[0].nic.mac  sentPacketToUpperLayer:vector(packetBytes)  ETV
attr interpolationmode  none
attr source  sentPacketToUpperLayer
vector 206  CAIN.ueD2DTx[0].nic.pdcpRrc  receivedPacketFromLowerLayer:vector(packetBytes)  ETV
attr interpolationmode  none
attr source  receivedPacketFromLowerLayer
vector 207  CAIN.ueD2DTx[0].nic.pdcpRrc  sentPacketToUpperLayer:vector(packetBytes)  ETV
attr interpolationmode  none
attr source  sentPacketToUpperLayer
vector 818  CAIN.ueD2DTx[19].nic.mac  receivedPacketFromLowerLayer:vector(packetBytes)  ETV
attr interpolationmode  none
attr source  receivedPacketFromLowerLayer
vector 230  CAIN.ueD2DTx[0].nic.phy  averageCqiD2Dvect:vector  ETV
attr source  averageCqiD2Dvect
attr title  "Average Cqi reported in D2D, vector"
attr unit  cqi
vector 754  CAIN.ueD2DTx[17].nic.mac  receivedPacketFromLowerLayer:vector(packetBytes)  ETV
attr interpolationmode  none
attr source  receivedPacketFromLowerLayer
vector 756  CAIN.ueD2DTx[17].nic.mac  sentPacketToLowerLayer:vector(packetBytes)  ETV
attr interpolationmode  none
attr source  sentPacketToLowerLayer
vector 1573  CAIN.ueD2DTx[8].tcp  tcpRcvQueueBytes  ETV
vector 1560  CAIN.ueD2DTx[8].tcp  "advertised window"  ETV
vector 1559  CAIN.ueD2DTx[8].tcp  "receive window"  ETV
vector 1562  CAIN.ueD2DTx[8].tcp  "sent ack"  ETV
vector 461  CAIN.ueD2DTx[8].nic.pdcpRrc  receivedPacketFromUpperLayer:vector(packetBytes)  ETV
attr interpolationmode  none
attr source  receivedPacketFromUpperLayer
vector 464  CAIN.ueD2DTx[8].nic.pdcpRrc  sentPacketToLowerLayer:vector(packetBytes)  ETV
attr interpolationmode  none
attr source  sentPacketToLowerLayer
vector 465  CAIN.ueD2DTx[8].nic.mac  receivedPacketFromUpperLayer:vector(packetBytes)  ETV
attr interpolationmode  none
attr source  receivedPacketFromUpperLayer
vector 1597  CAIN.ueD2DTx[9].tcp  tcpRcvQueueBytes  ETV
vector 1584  CAIN.ueD2DTx[9].tcp  "advertised window"  ETV
vector 1583  CAIN.ueD2DTx[9].tcp  "receive window"  ETV
vector 1586  CAIN.ueD2DTx[9].tcp  "sent ack"  ETV
vector 493  CAIN.ueD2DTx[9].nic.pdcpRrc  receivedPacketFromUpperLayer:vector(packetBytes)  ETV
attr interpolationmode  none
attr source  receivedPacketFromUpperLayer
vector 496  CAIN.ueD2DTx[9].nic.pdcpRrc  sentPacketToLowerLayer:vector(packetBytes)  ETV
attr interpolationmode  none
attr source  sentPacketToLowerLayer
vector 497  CAIN.ueD2DTx[9].nic.mac  receivedPacketFromUpperLayer:vector(packetBytes)  ETV
attr interpolationmode  none
attr source  receivedPacketFromUpperLayer
vector 506  CAIN.ueD2DTx[9].nic.mac  CainMessageSent:vector  ETV
attr interpolationmode  none
attr title  "# of Sent CAIN message, vector"
vector 500  CAIN.ueD2DTx[9].nic.mac  sentPacketToLowerLayer:vector(packetBytes)  ETV
attr interpolationmode  none
attr source  sentPacketToLowerLayer
vector 1621  CAIN.ueD2DTx[15].tcp  tcpRcvQueueBytes  ETV
vector 1608  CAIN.ueD2DTx[15].tcp  "advertised window"  ETV
vector 1607  CAIN.ueD2DTx[15].tcp  "receive window"  ETV
vector 1610  CAIN.ueD2DTx[15].tcp  "sent ack"  ETV
vector 685  CAIN.ueD2DTx[15].nic.pdcpRrc  receivedPacketFromUpperLayer:vector(packetBytes)  ETV
attr interpolationmode  none
attr source  receivedPacketFromUpperLayer
vector 688  CAIN.ueD2DTx[15].nic.pdcpRrc  sentPacketToLowerLayer:vector(packetBytes)  ETV
attr interpolationmode  none
attr source  sentPacketToLowerLayer
vector 689  CAIN.ueD2DTx[15].nic.mac  receivedPacketFromUpperLayer:vector(packetBytes)  ETV
attr interpolationmode  none
attr source  receivedPacketFromUpperLayer
vector 467  CAIN.ueD2DTx[8].nic.mac  sentPacketToUpperLayer:vector(packetBytes)  ETV
attr interpolationmode  none
attr source  sentPacketToUpperLayer
vector 699  CAIN.ueD2DTx[15].nic.mac  CainHopMessageSent:vector  ETV
attr interpolationmode  none
attr title  "# of Sent CAIN hop message, vector"
vector 692  CAIN.ueD2DTx[15].nic.mac  sentPacketToLowerLayer:vector(packetBytes)  ETV
attr interpolationmode  none
attr source  sentPacketToLowerLayer
vector 1645  CAIN.ueD2DTx[17].tcp  tcpRcvQueueBytes  ETV
vector 1632  CAIN.ueD2DTx[17].tcp  "advertised window"  ETV
vector 1631  CAIN.ueD2DTx[17].tcp  "receive window"  ETV
vector 1634  CAIN.ueD2DTx[17].tcp  "sent ack"  ETV
vector 749  CAIN.ueD2DTx[17].nic.pdcpRrc  receivedPacketFromUpperLayer:vector(packetBytes)  ETV
attr interpolationmode  none
attr source  receivedPacketFromUpperLayer
vector 752  CAIN.ueD2DTx[17].nic.pdcpRrc  sentPacketToLowerLayer:vector(packetBytes)  ETV
attr interpolationmode  none
attr source  sentPacketToLowerLayer
vector 753  CAIN.ueD2DTx[17].nic.mac  receivedPacketFromUpperLayer:vector(packetBytes)  ETV
attr interpolationmode  none
attr source  receivedPacketFromUpperLayer
vector 1669  CAIN.ueD2DTx[0].tcp  tcpRcvQueueBytes  ETV
vector 1656  CAIN.ueD2DTx[0].tcp  "advertised window"  ETV
vector 1655  CAIN.ueD2DTx[0].tcp  "receive window"  ETV
vector 1658  CAIN.ueD2DTx[0].tcp  "sent ack"  ETV
vector 205  CAIN.ueD2DTx[0].nic.pdcpRrc  receivedPacketFromUpperLayer:vector(packetBytes)  ETV
attr interpolationmode  none
attr source  receivedPacketFromUpperLayer
vector 208  CAIN.ueD2DTx[0].nic.pdcpRrc  sentPacketToLowerLayer:vector(packetBytes)  ETV
attr interpolationmode  none
attr source  sentPacketToLowerLayer
vector 209  CAIN.ueD2DTx[0].nic.mac  receivedPacketFromUpperLayer:vector(packetBytes)  ETV
attr interpolationmode  none
attr source  receivedPacketFromUpperLayer
vector 218  CAIN.ueD2DTx[0].nic.mac  CainMessageSent:vector  ETV
attr interpolationmode  none
attr title  "# of Sent CAIN message, vector"
vector 763  CAIN.ueD2DTx[17].nic.mac  CainHopMessageSent:vector  ETV
attr interpolationmode  none
attr title  "# of Sent CAIN hop message, vector"
vector 248  CAIN.ueD2DTx[1].nic.mac  DropedCainMessage:vector  ETV
attr interpolationmode  none
attr title  "Droped CAIN message due to RB not available, vector"
vector 1301  CAIN.eNodeB1.sctp  "SendQueue of Association 5"  ETV
vector 1065  CAIN.eNodeB1.sctp  "TSN Sent 5:10.0.5.1"  ETV
vector 1072  CAIN.eNodeB1.sctp  "Outstanding Bytes 5:10.0.5.1"  ETV
vector 870  CAIN.eNodeB1.sctp  "Outstanding Bytes 4:Total"  ETV
vector 1071  CAIN.eNodeB1.sctp  "Queued Sent Bytes 5:10.0.5.1"  ETV
vector 869  CAIN.eNodeB1.sctp  "Queued Sent Bytes 4:Total"  ETV
vector 914  CAIN.eNodeB.sctp  "TSN Received 1:10.0.5.2"  ETV
vector 890  CAIN.eNodeB.sctp  "Queued Received Bytes 1:Total"  ETV
vector 886  CAIN.eNodeB.sctp  "Advertised Receiver Window 1"  ETV
vector 895  CAIN.eNodeB.sctp  "Number of Total Gap Blocks Stored 1"  ETV
vector 896  CAIN.eNodeB.sctp  "Number of Revokable Gap Blocks Stored 1"  ETV
vector 897  CAIN.eNodeB.sctp  "Number of Non-Revokable Gap Blocks Stored 1"  ETV
vector 898  CAIN.eNodeB.sctp  "Number of Duplicate TSNs Stored 1"  ETV
vector 902  CAIN.eNodeB.sctp  "Length of SACK Sent 1"  ETV
vector 899  CAIN.eNodeB.sctp  "Number of Revokable Gap Blocks Sent 1"  ETV
vector 900  CAIN.eNodeB.sctp  "Number of Non-Revokable Gap Blocks Sent 1"  ETV
vector 901  CAIN.eNodeB.sctp  "Number of Duplicate TSNs Sent 1"  ETV
vector 906  CAIN.eNodeB.sctp  "End to End Delay of Association 1"  ETV
vector 141  CAIN.eNodeB.x2App[0].client  rcvdPk:vector(packetBytes)  ETV
attr interpolationmode  none
attr source  rcvdPk
attr title  "packets received, vector(packetBytes)"
vector 1300  CAIN.eNodeB1.sctp  "Number of Gap Blocks in Last SACK of Association 5"  ETV
vector 871  CAIN.eNodeB1.sctp  "Number of Revokable Gap Blocks in SACK 4"  ETV
vector 872  CAIN.eNodeB1.sctp  "Number of Non-Revokable Gap Blocks in SACK 4"  ETV
vector 1082  CAIN.eNodeB1.sctp  "TSN Acked CumAck 5:10.0.5.1"  ETV
vector 1048  CAIN.eNodeB1.sctp  "Number of Gap Acked Chunks in Last SACK 5:10.0.2.2"  ETV
vector 1049  CAIN.eNodeB1.sctp  "Number of Non-Revokable Gap Acked Chunks in Last SACK 5:10.0.2.2"  ETV
vector 1050  CAIN.eNodeB1.sctp  "Number of Gap Missed Chunks in Last SACK 5:10.0.2.2"  ETV
vector 1021  CAIN.eNodeB1.sctp  "Number of Gap Acked Chunks in Last SACK 5:10.0.4.1"  ETV
vector 1022  CAIN.eNodeB1.sctp  "Number of Non-Revokable Gap Acked Chunks in Last SACK 5:10.0.4.1"  ETV
vector 1023  CAIN.eNodeB1.sctp  "Number of Gap Missed Chunks in Last SACK 5:10.0.4.1"  ETV
vector 1075  CAIN.eNodeB1.sctp  "Number of Gap Acked Chunks in Last SACK 5:10.0.5.1"  ETV
vector 1076  CAIN.eNodeB1.sctp  "Number of Non-Revokable Gap Acked Chunks in Last SACK 5:10.0.5.1"  ETV
vector 1077  CAIN.eNodeB1.sctp  "Number of Gap Missed Chunks in Last SACK 5:10.0.5.1"  ETV
vector 881  CAIN.eNodeB1.sctp  "Arwnd in Last SACK 4"  ETV
vector 1084  CAIN.eNodeB1.sctp  "TSN PseudoCumAck 5:10.0.5.1"  ETV
vector 1085  CAIN.eNodeB1.sctp  "TSN RTXPseudoCumAck 5:10.0.5.1"  ETV
vector 1078  CAIN.eNodeB1.sctp  "Partial Bytes Acked 5:10.0.5.1"  ETV
vector 1693  CAIN.ueD2DTx[1].tcp  tcpRcvQueueBytes  ETV
vector 1680  CAIN.ueD2DTx[1].tcp  "advertised window"  ETV
vector 1679  CAIN.ueD2DTx[1].tcp  "receive window"  ETV
vector 1682  CAIN.ueD2DTx[1].tcp  "sent ack"  ETV
vector 237  CAIN.ueD2DTx[1].nic.pdcpRrc  receivedPacketFromUpperLayer:vector(packetBytes)  ETV
attr interpolationmode  none
attr source  receivedPacketFromUpperLayer
vector 240  CAIN.ueD2DTx[1].nic.pdcpRrc  sentPacketToLowerLayer:vector(packetBytes)  ETV
attr interpolationmode  none
attr source  sentPacketToLowerLayer
vector 241  CAIN.ueD2DTx[1].nic.mac  receivedPacketFromUpperLayer:vector(packetBytes)  ETV
attr interpolationmode  none
attr source  receivedPacketFromUpperLayer
vector 1717  CAIN.ueD2DTx[5].tcp  tcpRcvQueueBytes  ETV
vector 1704  CAIN.ueD2DTx[5].tcp  "advertised window"  ETV
vector 1703  CAIN.ueD2DTx[5].tcp  "receive window"  ETV
vector 1706  CAIN.ueD2DTx[5].tcp  "sent ack"  ETV
vector 365  CAIN.ueD2DTx[5].nic.pdcpRrc  receivedPacketFromUpperLayer:vector(packetBytes)  ETV
attr interpolationmode  none
attr source  receivedPacketFromUpperLayer
vector 368  CAIN.ueD2DTx[5].nic.pdcpRrc  sentPacketToLowerLayer:vector(packetBytes)  ETV
attr interpolationmode  none
attr source  sentPacketToLowerLayer
vector 369  CAIN.ueD2DTx[5].nic.mac  receivedPacketFromUpperLayer:vector(packetBytes)  ETV
attr interpolationmode  none
attr source  receivedPacketFromUpperLayer
vector 379  CAIN.ueD2DTx[5].nic.mac  CainHopMessageSent:vector  ETV
attr interpolationmode  none
attr title  "# of Sent CAIN hop message, vector"
vector 372  CAIN.ueD2DTx[5].nic.mac  sentPacketToLowerLayer:vector(packetBytes)  ETV
attr interpolationmode  none
attr source  sentPacketToLowerLayer
vector 154  CAIN.eNodeB1.nic.mac  receivedPacketFromLowerLayer:vector(packetBytes)  ETV
attr interpolationmode  none
attr source  receivedPacketFromLowerLayer
vector 1741  CAIN.ueD2DTx[3].tcp  tcpRcvQueueBytes  ETV
vector 1728  CAIN.ueD2DTx[3].tcp  "advertised window"  ETV
vector 1727  CAIN.ueD2DTx[3].tcp  "receive window"  ETV
vector 1730  CAIN.ueD2DTx[3].tcp  "sent ack"  ETV
vector 301  CAIN.ueD2DTx[3].nic.pdcpRrc  receivedPacketFromUpperLayer:vector(packetBytes)  ETV
attr interpolationmode  none
attr source  receivedPacketFromUpperLayer
vector 304  CAIN.ueD2DTx[3].nic.pdcpRrc  sentPacketToLowerLayer:vector(packetBytes)  ETV
attr interpolationmode  none
attr source  sentPacketToLowerLayer
vector 305  CAIN.ueD2DTx[3].nic.mac  receivedPacketFromUpperLayer:vector(packetBytes)  ETV
attr interpolationmode  none
attr source  receivedPacketFromUpperLayer
vector 308  CAIN.ueD2DTx[3].nic.mac  sentPacketToLowerLayer:vector(packetBytes)  ETV
attr interpolationmode  none
attr source  sentPacketToLowerLayer
vector 169  CAIN.eNodeB1.nic.mac  racpkt:vector  ETV
attr interpolationmode  none
attr title  "eNB received racpkt message, vector"
vector 170  CAIN.eNodeB1.nic.mac  racDistanceSignal:vector  ETV
attr interpolationmode  none
attr title  "Rac distance to enb, vector"
vector 171  CAIN.eNodeB1.nic.mac  racServedDevsSignal:vector  ETV
attr interpolationmode  none
attr title  "# of devices served on rac arriavall, vector"
vector 156  CAIN.eNodeB1.nic.mac  sentPacketToLowerLayer:vector(packetBytes)  ETV
attr interpolationmode  none
attr source  sentPacketToLowerLayer
vector 306  CAIN.ueD2DTx[3].nic.mac  receivedPacketFromLowerLayer:vector(packetBytes)  ETV
attr interpolationmode  none
attr source  receivedPacketFromLowerLayer
vector 243  CAIN.ueD2DTx[1].nic.mac  sentPacketToUpperLayer:vector(packetBytes)  ETV
attr interpolationmode  none
attr source  sentPacketToUpperLayer
vector 1765  CAIN.ueD2DTx[16].tcp  tcpRcvQueueBytes  ETV
vector 1752  CAIN.ueD2DTx[16].tcp  "advertised window"  ETV
vector 1751  CAIN.ueD2DTx[16].tcp  "receive window"  ETV
vector 1754  CAIN.ueD2DTx[16].tcp  "sent ack"  ETV
vector 717  CAIN.ueD2DTx[16].nic.pdcpRrc  receivedPacketFromUpperLayer:vector(packetBytes)  ETV
attr interpolationmode  none
attr source  receivedPacketFromUpperLayer
vector 720  CAIN.ueD2DTx[16].nic.pdcpRrc  sentPacketToLowerLayer:vector(packetBytes)  ETV
attr interpolationmode  none
attr source  sentPacketToLowerLayer
vector 721  CAIN.ueD2DTx[16].nic.mac  receivedPacketFromUpperLayer:vector(packetBytes)  ETV
attr interpolationmode  none
attr source  receivedPacketFromUpperLayer
vector 724  CAIN.ueD2DTx[16].nic.mac  sentPacketToLowerLayer:vector(packetBytes)  ETV
attr interpolationmode  none
attr source  sentPacketToLowerLayer
vector 722  CAIN.ueD2DTx[16].nic.mac  receivedPacketFromLowerLayer:vector(packetBytes)  ETV
attr interpolationmode  none
attr source  receivedPacketFromLowerLayer
vector 262  CAIN.ueD2DTx[1].nic.phy  averageCqiD2Dvect:vector  ETV
attr source  averageCqiD2Dvect
attr title  "Average Cqi reported in D2D, vector"
attr unit  cqi
vector 238  CAIN.ueD2DTx[1].nic.pdcpRrc  receivedPacketFromLowerLayer:vector(packetBytes)  ETV
attr interpolationmode  none
attr source  receivedPacketFromLowerLayer
vector 239  CAIN.ueD2DTx[1].nic.pdcpRrc  sentPacketToUpperLayer:vector(packetBytes)  ETV
attr interpolationmode  none
attr source  sentPacketToUpperLayer
vector 1789  CAIN.ueD2DTx[18].tcp  tcpRcvQueueBytes  ETV
vector 1776  CAIN.ueD2DTx[18].tcp  "advertised window"  ETV
vector 1775  CAIN.ueD2DTx[18].tcp  "receive window"  ETV
vector 1778  CAIN.ueD2DTx[18].tcp  "sent ack"  ETV
vector 781  CAIN.ueD2DTx[18].nic.pdcpRrc  receivedPacketFromUpperLayer:vector(packetBytes)  ETV
attr interpolationmode  none
attr source  receivedPacketFromUpperLayer
vector 784  CAIN.ueD2DTx[18].nic.pdcpRrc  sentPacketToLowerLayer:vector(packetBytes)  ETV
attr interpolationmode  none
attr source  sentPacketToLowerLayer
vector 785  CAIN.ueD2DTx[18].nic.mac  receivedPacketFromUpperLayer:vector(packetBytes)  ETV
attr interpolationmode  none
attr source  receivedPacketFromUpperLayer
vector 788  CAIN.ueD2DTx[18].nic.mac  sentPacketToLowerLayer:vector(packetBytes)  ETV
attr interpolationmode  none
attr source  sentPacketToLowerLayer
vector 786  CAIN.ueD2DTx[18].nic.mac  receivedPacketFromLowerLayer:vector(packetBytes)  ETV
attr interpolationmode  none
attr source  receivedPacketFromLowerLayer
vector 602  CAIN.ueD2DTx[12].nic.mac  CainMessageSent:vector  ETV
attr interpolationmode  none
attr title  "# of Sent CAIN message, vector"
vector 626  CAIN.ueD2DTx[13].nic.mac  receivedPacketFromLowerLayer:vector(packetBytes)  ETV
attr interpolationmode  none
attr source  receivedPacketFromLowerLayer
vector 173  CAIN.eNodeB1.nic.phy  averageCqiUlvect:vector  ETV
attr source  averageCqiUlvect
attr title  "Average Cqi reported in UL, vector"
attr unit  cqi
8	0	0	0
9	0	0	0
24	0	0	0
25	0	0	0
35	0	0	0
36	0	0	0
56	0	0	0
57	0	0	0
67	0	0	0
68	0	0	0
78	0	0	0
79	0	0	0
91	2463	0.039	44
91	4195	0.062	44
92	2458	0.039	45
92	4190	0.062	45
93	2458	0.039	44
93	4190	0.062	44
94	2463	0.039	45
94	4195	0.062	45
95	2466	0.039	45
95	2523	0.04	47
95	4198	0.062	45
95	4340	0.063	47
96	382	0.002	0
96	385	0.002	0
96	388	0.002	0
96	391	0.002	0
96	394	0.002	0
96	397	0.002	0
96	400	0.002	0
96	403	0.002	0
96	406	0.002	0
96	409	0.002	0
96	412	0.002	0
96	415	0.002	0
96	418	0.002	0
96	421	0.002	0
96	424	0.002	0
96	427	0.002	0
96	430	0.002	0
96	433	0.002	0
96	436	0.002	0
96	439	0.002	0
96	739	0.008	0
96	742	0.008	0
96	745	0.008	0
96	748	0.008	0
96	751	0.008	0
96	754	0.008	0
96	757	0.008	0
96	760	0.008	0
96	763	0.008	0
96	766	0.008	0
96	1022	0.014	0
96	1025	0.014	0
96	1028	0.014	0
96	1031	0.014	0
96	1034	0.014	0
96	1037	0.014	0
96	1040	0.014	0
96	1043	0.014	0
96	1046	0.014	0
96	1049	0.014	0
96	1122	0.016	0
96	1151	0.017	0
96	1154	0.017	0
96	1317	0.02	0
96	1320	0.02	0
96	1323	0.02	0
96	1326	0.02	0
96	1329	0.02	0
96	1332	0.02	0
96	1335	0.02	0
96	1338	0.02	0
96	1341	0.02	0
96	1344	0.02	0
96	1388	0.021	0
96	1426	0.022	0
96	1429	0.022	0
96	1519	0.024	0
96	1653	0.026	0
96	1656	0.026	0
96	1659	0.026	0
96	1662	0.026	0
96	1665	0.026	0
96	1668	0.026	0
96	1671	0.026	0
96	1674	0.026	0
96	1677	0.026	0
96	1680	0.026	0
96	1683	0.026	0
96	1692	0.026	0
96	1728	0.027	0
96	1731	0.027	0
96	1768	0.028	0
96	1812	0.029	0
96	1870	0.03	0
96	1955	0.031	0
96	1964	0.031	0
96	1967	0.031	0
96	1997	0.032	0
96	2000	0.032	0
96	2003	0.032	0
96	2006	0.032	0
96	2009	0.032	0
96	2012	0.032	0
96	2015	0.032	0
96	2018	0.032	0
96	2021	0.032	0
96	2024	0.032	0
96	2032	0.032	0
96	2035	0.032	0
96	2083	0.033	0
96	2128	0.034	0
96	2134	0.034	0
96	2196	0.035	0
96	2260	0.036	0
96	2268	0.036	0
96	2353	0.037	0
96	2359	0.037	0
96	2362	0.037	0
96	2406	0.038	0
96	2409	0.038	0
96	2412	0.038	0
96	2415	0.038	0
96	2418	0.038	0
96	2421	0.038	0
96	2424	0.038	0
96	2427	0.038	0
96	2430	0.038	0
96	2433	0.038	0
96	2439	0.038	0
96	2441	0.038	0
96	2447	0.038	0
96	2499	0.039	0
96	2508	0.039	0
96	2513	0.039	0
96	2517	0.039	0
96	2617	0.041	0
96	2620	0.041	0
96	2679	0.042	0
96	2685	0.042	0
96	2688	0.042	0
96	2782	0.043	0
96	2784	0.043	0
96	2790	0.043	0
96	2833	0.044	0
96	2836	0.044	0
96	2839	0.044	0
96	2842	0.044	0
96	2845	0.044	0
96	2848	0.044	0
96	2851	0.044	0
96	2854	0.044	0
96	2857	0.044	0
96	2860	0.044	0
96	2871	0.044	0
96	2876	0.044	0
96	2880	0.044	0
96	2910	0.045	0
96	2968	0.046	0
96	2971	0.046	0
96	2974	0.046	0
96	3017	0.047	0
96	3023	0.047	0
96	3026	0.047	0
96	3096	0.048	0
96	3102	0.048	0
96	3200	0.049	0
96	3206	0.049	0
96	3211	0.049	0
96	3215	0.049	0
96	3246	0.05	0
96	3249	0.05	0
96	3252	0.05	0
96	3255	0.05	0
96	3258	0.05	0
96	3261	0.05	0
96	3264	0.05	0
96	3267	0.05	0
96	3270	0.05	0
96	3273	0.05	0
96	3331	0.051	0
96	3340	0.051	0
96	3343	0.051	0
96	3346	0.051	0
96	3393	0.052	0
96	3402	0.052	0
96	3405	0.052	0
96	3465	0.053	0
96	3467	0.053	0
96	3473	0.053	0
96	3476	0.053	0
96	3538	0.054	0
96	3547	0.054	0
96	3556	0.054	0
96	3560	0.054	0
96	3650	0.055	0
96	3667	0.055	0
96	3670	0.055	0
96	3703	0.056	0
96	3706	0.056	0
96	3709	0.056	0
96	3712	0.056	0
96	3715	0.056	0
96	3718	0.056	0
96	3721	0.056	0
96	3724	0.056	0
96	3727	0.056	0
96	3730	0.056	0
96	3741	0.056	0
96	3752	0.056	0
96	3755	0.056	0
96	3758	0.056	0
96	3761	0.056	0
96	3848	0.057	0
96	3857	0.057	0
96	3860	0.057	0
96	3982	0.058	0
96	3984	0.058	0
96	3990	0.058	0
96	3993	0.058	0
96	4031	0.059	0
96	4034	0.059	0
96	4036	0.059	0
96	4042	0.059	0
96	4046	0.059	0
96	4102	0.06	0
96	4110	0.06	0
96	4168	0.061	0
96	4177	0.061	0
96	4229	0.062	0
96	4232	0.062	0
96	4235	0.062	0
96	4244	0.062	0
96	4247	0.062	0
96	4250	0.062	0
96	4253	0.062	0
96	4256	0.062	0
96	4259	0.062	0
96	4276	0.062	0
96	4286	0.062	0
96	4292	0.062	0
96	4295	0.062	0
96	4379	0.063	0
96	4381	0.063	0
96	4387	0.063	0
96	4423	0.064	0
96	4431	0.064	0
96	4437	0.064	0
96	4439	0.064	0
96	4484	0.065	0
96	4489	0.065	0
96	4495	0.065	0
96	4554	0.066	0
96	4566	0.066	0
96	4633	0.067	0
96	4639	0.067	0
96	4642	0.067	0
96	4644	0.067	0
96	4679	0.068	0
96	4682	0.068	0
96	4685	0.068	0
96	4694	0.068	0
96	4697	0.068	0
96	4700	0.068	0
96	4703	0.068	0
96	4706	0.068	0
96	4709	0.068	0
96	4726	0.068	0
96	4729	0.068	0
96	4734	0.068	0
96	4736	0.068	0
96	4742	0.068	0
96	4815	0.069	0
96	4820	0.069	0
96	4826	0.069	0
96	4828	0.069	0
96	4869	0.07	0
96	4905	0.071	0
96	4911	0.071	0
96	4976	0.072	0
96	4982	0.072	0
96	5038	0.073	0
96	5040	0.073	0
96	5046	0.073	0
96	5079	0.074	0
96	5082	0.074	0
96	5085	0.074	0
96	5094	0.074	0
96	5097	0.074	0
96	5100	0.074	0
96	5103	0.074	0
96	5106	0.074	0
96	5109	0.074	0
96	5126	0.074	0
96	5132	0.074	0
96	5138	0.074	0
96	5140	0.074	0
96	5215	0.075	0
96	5221	0.075	0
96	5264	0.076	0
96	5273	0.076	0
96	5312	0.077	0
96	5318	0.077	0
96	5321	0.077	0
96	5378	0.078	0
96	5386	0.078	0
96	5441	0.079	0
96	5447	0.079	0
96	5449	0.079	0
96	5478	0.08	0
96	5481	0.08	0
96	5484	0.08	0
96	5493	0.08	0
96	5496	0.08	0
96	5499	0.08	0
96	5502	0.08	0
96	5505	0.08	0
96	5508	0.08	0
96	5525	0.08	0
96	5537	0.08	0
96	5609	0.081	0
96	5615	0.081	0
96	5654	0.082	0
96	5660	0.082	0
96	5694	0.083	0
96	5700	0.083	0
96	5753	0.084	0
96	5759	0.084	0
96	5761	0.084	0
96	5819	0.085	0
96	5848	0.086	0
96	5851	0.086	0
96	5854	0.086	0
96	5863	0.086	0
96	5866	0.086	0
96	5869	0.086	0
96	5872	0.086	0
96	5875	0.086	0
96	5878	0.086	0
96	5895	0.086	0
96	5901	0.086	0
96	5907	0.086	0
96	5979	0.087	0
96	5985	0.087	0
96	6017	0.088	0
96	6023	0.088	0
96	6056	0.089	0
96	6062	0.089	0
96	6064	0.089	0
96	6122	0.09	0
96	6174	0.091	0
96	6180	0.091	0
96	6218	0.092	0
96	6221	0.092	0
96	6224	0.092	0
96	6233	0.092	0
96	6236	0.092	0
96	6239	0.092	0
96	6242	0.092	0
96	6245	0.092	0
96	6248	0.092	0
96	6265	0.092	0
96	6271	0.092	0
96	6277	0.092	0
96	6352	0.093	0
96	6358	0.093	0
96	6391	0.094	0
96	6399	0.094	0
96	6401	0.094	0
96	6439	0.095	0
96	6491	0.096	0
96	6497	0.096	0
96	6549	0.097	0
96	6555	0.097	0
96	6584	0.098	0
96	6587	0.098	0
96	6590	0.098	0
96	6599	0.098	0
96	6602	0.098	0
96	6605	0.098	0
96	6608	0.098	0
96	6611	0.098	0
96	6614	0.098	0
96	6631	0.098	0
96	6637	0.098	0
96	6643	0.098	0
96	6716	0.099	0
96	6722	0.099	0
96	6724	0.099	0
96	6762	0.1	0
96	6794	0.101	0
96	6800	0.101	0
96	6852	0.102	0
96	6858	0.102	0
96	6910	0.103	0
96	6916	0.103	0
96	6949	0.104	0
96	6952	0.104	0
96	6955	0.104	0
96	6964	0.104	0
96	6967	0.104	0
96	6970	0.104	0
96	6973	0.104	0
96	6976	0.104	0
96	6979	0.104	0
96	6996	0.104	0
96	6999	0.104	0
96	7005	0.104	0
96	7007	0.104	0
96	7085	0.105	0
96	7117	0.106	0
96	7123	0.106	0
96	7155	0.107	0
96	7161	0.107	0
96	7213	0.108	0
96	7219	0.108	0
96	7272	0.109	0
96	7278	0.109	0
96	7280	0.109	0
96	7309	0.11	0
96	7312	0.11	0
96	7315	0.11	0
96	7324	0.11	0
96	7327	0.11	0
96	7330	0.11	0
96	7333	0.11	0
96	7336	0.11	0
96	7339	0.11	0
96	7356	0.11	0
96	7368	0.11	0
96	7400	0.111	0
96	7406	0.111	0
96	7438	0.112	0
96	7444	0.112	0
96	7476	0.113	0
96	7482	0.113	0
96	7535	0.114	0
96	7541	0.114	0
96	7543	0.114	0
96	7601	0.115	0
96	7630	0.116	0
96	7633	0.116	0
96	7636	0.116	0
96	7645	0.116	0
96	7648	0.116	0
96	7651	0.116	0
96	7654	0.116	0
96	7657	0.116	0
96	7660	0.116	0
96	7677	0.116	0
96	7683	0.116	0
96	7689	0.116	0
96	7721	0.117	0
96	7727	0.117	0
96	7759	0.118	0
96	7765	0.118	0
96	7798	0.119	0
96	7804	0.119	0
96	7806	0.119	0
96	7864	0.12	0
96	7916	0.121	0
96	7922	0.121	0
96	7951	0.122	0
96	7954	0.122	0
96	7957	0.122	0
96	7966	0.122	0
96	7969	0.122	0
96	7972	0.122	0
96	7975	0.122	0
96	7978	0.122	0
96	7981	0.122	0
96	7998	0.122	0
96	8004	0.122	0
96	8010	0.122	0
96	8042	0.123	0
96	8048	0.123	0
96	8081	0.124	0
96	8087	0.124	0
96	8089	0.124	0
96	8127	0.125	0
96	8179	0.126	0
96	8185	0.126	0
96	8237	0.127	0
96	8243	0.127	0
96	8272	0.128	0
96	8275	0.128	0
96	8278	0.128	0
96	8287	0.128	0
96	8290	0.128	0
96	8293	0.128	0
96	8296	0.128	0
96	8299	0.128	0
96	8302	0.128	0
96	8319	0.128	0
96	8325	0.128	0
96	8331	0.128	0
96	8364	0.129	0
96	8370	0.129	0
96	8372	0.129	0
96	8410	0.13	0
96	8442	0.131	0
96	8448	0.131	0
96	8500	0.132	0
96	8506	0.132	0
96	8558	0.133	0
96	8564	0.133	0
96	8597	0.134	0
96	8600	0.134	0
96	8603	0.134	0
96	8612	0.134	0
96	8615	0.134	0
96	8618	0.134	0
96	8621	0.134	0
96	8624	0.134	0
96	8627	0.134	0
96	8644	0.134	0
96	8647	0.134	0
96	8653	0.134	0
96	8655	0.134	0
96	8693	0.135	0
96	8725	0.136	0
96	8731	0.136	0
96	8763	0.137	0
96	8769	0.137	0
96	8821	0.138	0
96	8827	0.138	0
96	8880	0.139	0
96	8886	0.139	0
96	8888	0.139	0
96	8917	0.14	0
96	8920	0.14	0
96	8923	0.14	0
96	8932	0.14	0
96	8935	0.14	0
96	8938	0.14	0
96	8941	0.14	0
96	8944	0.14	0
96	8947	0.14	0
96	8964	0.14	0
96	8976	0.14	0
96	9008	0.141	0
96	9014	0.141	0
96	9046	0.142	0
96	9052	0.142	0
96	9084	0.143	0
96	9090	0.143	0
96	9143	0.144	0
96	9149	0.144	0
96	9151	0.144	0
96	9209	0.145	0
96	9238	0.146	0
96	9241	0.146	0
96	9244	0.146	0
96	9253	0.146	0
96	9256	0.146	0
96	9259	0.146	0
96	9262	0.146	0
96	9265	0.146	0
96	9268	0.146	0
96	9285	0.146	0
96	9291	0.146	0
96	9297	0.146	0
96	9329	0.147	0
96	9335	0.147	0
96	9367	0.148	0
96	9373	0.148	0
96	9406	0.149	0
96	9412	0.149	0
96	9414	0.149	0
96	9472	0.15	0
96	9524	0.151	0
96	9530	0.151	0
96	9559	0.152	0
96	9562	0.152	0
96	9565	0.152	0
96	9574	0.152	0
96	9577	0.152	0
96	9580	0.152	0
96	9583	0.152	0
96	9586	0.152	0
96	9589	0.152	0
96	9606	0.152	0
96	9612	0.152	0
96	9618	0.152	0
96	9650	0.153	0
96	9656	0.153	0
96	9689	0.154	0
96	9695	0.154	0
96	9697	0.154	0
96	9735	0.155	0
96	9787	0.156	0
96	9793	0.156	0
96	9845	0.157	0
96	9851	0.157	0
96	9880	0.158	0
96	9883	0.158	0
96	9886	0.158	0
96	9895	0.158	0
96	9898	0.158	0
96	9901	0.158	0
96	9904	0.158	0
96	9907	0.158	0
96	9910	0.158	0
96	9927	0.158	0
96	9933	0.158	0
96	9939	0.158	0
96	9972	0.159	0
96	9978	0.159	0
96	9980	0.159	0
96	10018	0.16	0
96	10050	0.161	0
96	10056	0.161	0
96	10108	0.162	0
96	10114	0.162	0
96	10166	0.163	0
96	10172	0.163	0
96	10205	0.164	0
96	10208	0.164	0
96	10211	0.164	0
96	10220	0.164	0
96	10223	0.164	0
96	10226	0.164	0
96	10229	0.164	0
96	10232	0.164	0
96	10235	0.164	0
96	10252	0.164	0
96	10255	0.164	0
96	10261	0.164	0
96	10263	0.164	0
96	10301	0.165	0
96	10333	0.166	0
96	10339	0.166	0
96	10371	0.167	0
96	10377	0.167	0
96	10429	0.168	0
96	10435	0.168	0
96	10488	0.169	0
96	10494	0.169	0
96	10496	0.169	0
96	10525	0.17	0
96	10528	0.17	0
96	10531	0.17	0
96	10540	0.17	0
96	10543	0.17	0
96	10546	0.17	0
96	10549	0.17	0
96	10552	0.17	0
96	10555	0.17	0
96	10572	0.17	0
96	10584	0.17	0
96	10616	0.171	0
96	10622	0.171	0
96	10654	0.172	0
96	10660	0.172	0
96	10692	0.173	0
96	10698	0.173	0
96	10751	0.174	0
96	10757	0.174	0
96	10759	0.174	0
96	10817	0.175	0
96	10846	0.176	0
96	10849	0.176	0
96	10852	0.176	0
96	10861	0.176	0
96	10864	0.176	0
96	10867	0.176	0
96	10870	0.176	0
96	10873	0.176	0
96	10876	0.176	0
96	10893	0.176	0
96	10899	0.176	0
96	10905	0.176	0
96	10937	0.177	0
96	10943	0.177	0
96	10975	0.178	0
96	10981	0.178	0
96	11014	0.179	0
96	11020	0.179	0
96	11022	0.179	0
96	11080	0.18	0
96	11132	0.181	0
96	11138	0.181	0
96	11167	0.182	0
96	11170	0.182	0
96	11173	0.182	0
96	11182	0.182	0
96	11185	0.182	0
96	11188	0.182	0
96	11191	0.182	0
96	11194	0.182	0
96	11197	0.182	0
96	11214	0.182	0
96	11220	0.182	0
96	11226	0.182	0
96	11258	0.183	0
96	11264	0.183	0
96	11297	0.184	0
96	11303	0.184	0
96	11305	0.184	0
96	11343	0.185	0
96	11395	0.186	0
96	11401	0.186	0
96	11453	0.187	0
96	11459	0.187	0
96	11488	0.188	0
96	11491	0.188	0
96	11494	0.188	0
96	11503	0.188	0
96	11506	0.188	0
96	11509	0.188	0
96	11512	0.188	0
96	11515	0.188	0
96	11518	0.188	0
96	11535	0.188	0
96	11541	0.188	0
96	11547	0.188	0
96	11580	0.189	0
96	11586	0.189	0
96	11588	0.189	0
96	11626	0.19	0
96	11658	0.191	0
96	11664	0.191	0
96	11716	0.192	0
96	11722	0.192	0
96	11774	0.193	0
96	11780	0.193	0
96	11813	0.194	0
96	11816	0.194	0
96	11819	0.194	0
96	11828	0.194	0
96	11831	0.194	0
96	11834	0.194	0
96	11837	0.194	0
96	11840	0.194	0
96	11843	0.194	0
96	11860	0.194	0
96	11863	0.194	0
96	11869	0.194	0
96	11871	0.194	0
96	11909	0.195	0
96	11941	0.196	0
96	11947	0.196	0
96	11979	0.197	0
96	11985	0.197	0
96	12037	0.198	0
96	12043	0.198	0
96	12096	0.199	0
96	12102	0.199	0
96	12104	0.199	0
96	12133	0.2	0
96	12136	0.2	0
96	12139	0.2	0
96	12148	0.2	0
96	12151	0.2	0
96	12154	0.2	0
96	12157	0.2	0
96	12160	0.2	0
96	12163	0.2	0
96	12180	0.2	0
96	12192	0.2	0
96	12224	0.201	0
96	12230	0.201	0
96	12262	0.202	0
96	12268	0.202	0
96	12300	0.203	0
96	12306	0.203	0
96	12359	0.204	0
96	12365	0.204	0
96	12367	0.204	0
96	12425	0.205	0
96	12454	0.206	0
96	12457	0.206	0
96	12460	0.206	0
96	12469	0.206	0
96	12472	0.206	0
96	12475	0.206	0
96	12478	0.206	0
96	12481	0.206	0
96	12484	0.206	0
96	12501	0.206	0
96	12507	0.206	0
96	12513	0.206	0
96	12545	0.207	0
96	12551	0.207	0
96	12998	0.208	0
96	13004	0.208	0
96	13037	0.209	0
96	13043	0.209	0
96	13045	0.209	0
96	13103	0.21	0
96	13155	0.211	0
96	13161	0.211	0
96	13190	0.212	0
96	13193	0.212	0
96	13196	0.212	0
96	13205	0.212	0
96	13208	0.212	0
96	13211	0.212	0
96	13214	0.212	0
96	13217	0.212	0
96	13220	0.212	0
96	13237	0.212	0
96	13243	0.212	0
96	13249	0.212	0
96	13281	0.213	0
96	13287	0.213	0
96	13320	0.214	0
96	13326	0.214	0
96	13328	0.214	0
96	13366	0.215	0
96	13418	0.216	0
96	13424	0.216	0
96	13476	0.217	0
96	13482	0.217	0
96	13511	0.218	0
96	13514	0.218	0
96	13517	0.218	0
96	13526	0.218	0
96	13529	0.218	0
96	13532	0.218	0
96	13535	0.218	0
96	13538	0.218	0
96	13541	0.218	0
96	13558	0.218	0
96	13564	0.218	0
96	13570	0.218	0
96	13603	0.219	0
96	13609	0.219	0
96	13611	0.219	0
96	13649	0.22	0
96	13681	0.221	0
96	13687	0.221	0
96	13739	0.222	0
96	13745	0.222	0
96	13797	0.223	0
96	13803	0.223	0
96	13836	0.224	0
96	13839	0.224	0
96	13842	0.224	0
96	13851	0.224	0
96	13854	0.224	0
96	13857	0.224	0
96	13860	0.224	0
96	13863	0.224	0
96	13866	0.224	0
96	13883	0.224	0
96	13886	0.224	0
96	13892	0.224	0
96	13894	0.224	0
96	13932	0.225	0
96	13964	0.226	0
96	13970	0.226	0
96	14002	0.227	0
96	14008	0.227	0
96	14060	0.228	0
96	14066	0.228	0
96	14119	0.229	0
96	14125	0.229	0
96	14127	0.229	0
96	14156	0.23	0
96	14159	0.23	0
96	14162	0.23	0
96	14171	0.23	0
96	14174	0.23	0
96	14177	0.23	0
96	14180	0.23	0
96	14183	0.23	0
96	14186	0.23	0
96	14203	0.23	0
96	14215	0.23	0
96	14247	0.231	0
96	14253	0.231	0
96	14285	0.232	0
96	14291	0.232	0
96	14323	0.233	0
96	14329	0.233	0
96	14382	0.234	0
96	14388	0.234	0
96	14390	0.234	0
96	14448	0.235	0
96	14477	0.236	0
96	14480	0.236	0
96	14483	0.236	0
96	14492	0.236	0
96	14495	0.236	0
96	14498	0.236	0
96	14501	0.236	0
96	14504	0.236	0
96	14507	0.236	0
96	14524	0.236	0
96	14530	0.236	0
96	14536	0.236	0
96	14568	0.237	0
96	14574	0.237	0
96	14606	0.238	0
96	14612	0.238	0
96	14645	0.239	0
96	14651	0.239	0
96	14653	0.239	0
96	14711	0.24	0
96	14763	0.241	0
96	14769	0.241	0
96	14798	0.242	0
96	14801	0.242	0
96	14804	0.242	0
96	14813	0.242	0
96	14816	0.242	0
96	14819	0.242	0
96	14822	0.242	0
96	14825	0.242	0
96	14828	0.242	0
96	14845	0.242	0
96	14851	0.242	0
96	14857	0.242	0
96	14889	0.243	0
96	14895	0.243	0
96	14928	0.244	0
96	14934	0.244	0
96	14936	0.244	0
96	14974	0.245	0
96	15026	0.246	0
96	15032	0.246	0
96	15084	0.247	0
96	15090	0.247	0
96	15119	0.248	0
96	15122	0.248	0
96	15125	0.248	0
96	15134	0.248	0
96	15137	0.248	0
96	15140	0.248	0
96	15143	0.248	0
96	15146	0.248	0
96	15149	0.248	0
96	15166	0.248	0
96	15172	0.248	0
96	15178	0.248	0
96	15211	0.249	0
96	15217	0.249	0
96	15219	0.249	0
96	15257	0.25	0
96	15289	0.251	0
96	15295	0.251	0
96	15347	0.252	0
96	15353	0.252	0
96	15405	0.253	0
96	15411	0.253	0
96	15444	0.254	0
96	15447	0.254	0
96	15450	0.254	0
96	15459	0.254	0
96	15462	0.254	0
96	15465	0.254	0
96	15468	0.254	0
96	15471	0.254	0
96	15474	0.254	0
96	15491	0.254	0
96	15494	0.254	0
96	15500	0.254	0
96	15502	0.254	0
96	15540	0.255	0
96	15572	0.256	0
96	15578	0.256	0
96	15610	0.257	0
96	15616	0.257	0
96	16083	0.258	0
96	16089	0.258	0
96	16142	0.259	0
96	16148	0.259	0
96	16150	0.259	0
96	16179	0.26	0
96	16182	0.26	0
96	16185	0.26	0
96	16194	0.26	0
96	16197	0.26	0
96	16200	0.26	0
96	16203	0.26	0
96	16206	0.26	0
96	16209	0.26	0
96	16226	0.26	0
96	16238	0.26	0
96	16270	0.261	0
96	16276	0.261	0
96	16308	0.262	0
96	16314	0.262	0
96	16346	0.263	0
96	16352	0.263	0
96	16405	0.264	0
96	16411	0.264	0
96	16413	0.264	0
96	16471	0.265	0
96	16500	0.266	0
96	16503	0.266	0
96	16506	0.266	0
96	16515	0.266	0
96	16518	0.266	0
96	16521	0.266	0
96	16524	0.266	0
96	16527	0.266	0
96	16530	0.266	0
96	16547	0.266	0
96	16553	0.266	0
96	16559	0.266	0
96	16591	0.267	0
96	16597	0.267	0
96	16629	0.268	0
96	16635	0.268	0
96	16668	0.269	0
96	16674	0.269	0
96	16676	0.269	0
96	16734	0.27	0
96	16786	0.271	0
96	16792	0.271	0
96	16821	0.272	0
96	16824	0.272	0
96	16827	0.272	0
96	16836	0.272	0
96	16839	0.272	0
96	16842	0.272	0
96	16845	0.272	0
96	16848	0.272	0
96	16851	0.272	0
96	16868	0.272	0
96	16874	0.272	0
96	16880	0.272	0
96	16912	0.273	0
96	16918	0.273	0
96	16951	0.274	0
96	16957	0.274	0
96	16959	0.274	0
96	16997	0.275	0
96	17049	0.276	0
96	17055	0.276	0
96	17107	0.277	0
96	17113	0.277	0
96	17142	0.278	0
96	17145	0.278	0
96	17148	0.278	0
96	17157	0.278	0
96	17160	0.278	0
96	17163	0.278	0
96	17166	0.278	0
96	17169	0.278	0
96	17172	0.278	0
96	17189	0.278	0
96	17195	0.278	0
96	17201	0.278	0
96	17234	0.279	0
96	17240	0.279	0
96	17242	0.279	0
96	17280	0.28	0
96	17312	0.281	0
96	17318	0.281	0
96	17370	0.282	0
96	17376	0.282	0
96	17428	0.283	0
96	17434	0.283	0
96	17467	0.284	0
96	17470	0.284	0
96	17473	0.284	0
96	17482	0.284	0
96	17485	0.284	0
96	17488	0.284	0
96	17491	0.284	0
96	17494	0.284	0
96	17497	0.284	0
96	17514	0.284	0
96	17517	0.284	0
96	17523	0.284	0
96	17525	0.284	0
96	17563	0.285	0
96	17595	0.286	0
96	17601	0.286	0
96	17633	0.287	0
96	17639	0.287	0
96	17691	0.288	0
96	17697	0.288	0
96	17750	0.289	0
96	17756	0.289	0
96	17758	0.289	0
96	17787	0.29	0
96	17790	0.29	0
96	17793	0.29	0
96	17802	0.29	0
96	17805	0.29	0
96	17808	0.29	0
96	17811	0.29	0
96	17814	0.29	0
96	17817	0.29	0
96	17834	0.29	0
96	17846	0.29	0
96	17878	0.291	0
96	17884	0.291	0
96	17916	0.292	0
96	17922	0.292	0
96	17954	0.293	0
96	17960	0.293	0
96	18013	0.294	0
96	18019	0.294	0
96	18021	0.294	0
96	18079	0.295	0
96	18108	0.296	0
96	18111	0.296	0
96	18114	0.296	0
96	18123	0.296	0
96	18126	0.296	0
96	18129	0.296	0
96	18132	0.296	0
96	18135	0.296	0
96	18138	0.296	0
96	18155	0.296	0
96	18161	0.296	0
96	18167	0.296	0
96	18199	0.297	0
96	18205	0.297	0
96	18237	0.298	0
96	18243	0.298	0
96	18276	0.299	0
96	18282	0.299	0
96	18284	0.299	0
96	18342	0.3	0
96	18394	0.301	0
96	18400	0.301	0
96	18429	0.302	0
96	18432	0.302	0
96	18435	0.302	0
96	18444	0.302	0
96	18447	0.302	0
96	18450	0.302	0
96	18453	0.302	0
96	18456	0.302	0
96	18459	0.302	0
96	18476	0.302	0
96	18482	0.302	0
96	18488	0.302	0
96	18520	0.303	0
96	18526	0.303	0
96	18559	0.304	0
96	18565	0.304	0
96	18567	0.304	0
96	18605	0.305	0
96	18657	0.306	0
96	18663	0.306	0
96	18715	0.307	0
96	18721	0.307	0
96	18750	0.308	0
96	18753	0.308	0
96	18756	0.308	0
96	18765	0.308	0
96	18768	0.308	0
96	18771	0.308	0
96	18774	0.308	0
96	18777	0.308	0
96	18780	0.308	0
96	18797	0.308	0
96	18803	0.308	0
96	18809	0.308	0
96	18842	0.309	0
96	18848	0.309	0
96	18850	0.309	0
96	18888	0.31	0
96	18920	0.311	0
96	18926	0.311	0
96	18978	0.312	0
96	18984	0.312	0
96	19036	0.313	0
96	19042	0.313	0
96	19075	0.314	0
96	19078	0.314	0
96	19081	0.314	0
96	19090	0.314	0
96	19093	0.314	0
96	19096	0.314	0
96	19099	0.314	0
96	19102	0.314	0
96	19105	0.314	0
96	19122	0.314	0
96	19125	0.314	0
96	19131	0.314	0
96	19133	0.314	0
96	19171	0.315	0
96	19203	0.316	0
96	19209	0.316	0
96	19241	0.317	0
96	19247	0.317	0
96	19299	0.318	0
96	19305	0.318	0
96	19358	0.319	0
96	19364	0.319	0
96	19366	0.319	0
96	19395	0.32	0
96	19398	0.32	0
96	19401	0.32	0
96	19410	0.32	0
96	19413	0.32	0
96	19416	0.32	0
96	19419	0.32	0
96	19422	0.32	0
96	19425	0.32	0
96	19442	0.32	0
96	19454	0.32	0
96	19486	0.321	0
96	19492	0.321	0
96	19524	0.322	0
96	19530	0.322	0
96	19562	0.323	0
96	19568	0.323	0
96	19621	0.324	0
96	19627	0.324	0
96	19629	0.324	0
96	19687	0.325	0
96	19716	0.326	0
96	19719	0.326	0
96	19722	0.326	0
96	19731	0.326	0
96	19734	0.326	0
96	19737	0.326	0
96	19740	0.326	0
96	19743	0.326	0
96	19746	0.326	0
96	19763	0.326	0
96	19769	0.326	0
96	19775	0.326	0
96	19807	0.327	0
96	19813	0.327	0
96	19845	0.328	0
96	19851	0.328	0
96	19884	0.329	0
96	19890	0.329	0
96	19892	0.329	0
96	19950	0.33	0
96	20002	0.331	0
96	20008	0.331	0
96	20037	0.332	0
96	20040	0.332	0
96	20043	0.332	0
96	20052	0.332	0
96	20055	0.332	0
96	20058	0.332	0
96	20061	0.332	0
96	20064	0.332	0
96	20067	0.332	0
96	20084	0.332	0
96	20090	0.332	0
96	20096	0.332	0
96	20128	0.333	0
96	20134	0.333	0
96	20167	0.334	0
96	20173	0.334	0
96	20175	0.334	0
96	20213	0.335	0
96	20265	0.336	0
96	20271	0.336	0
96	20323	0.337	0
96	20329	0.337	0
96	20358	0.338	0
96	20361	0.338	0
96	20364	0.338	0
96	20373	0.338	0
96	20376	0.338	0
96	20379	0.338	0
96	20382	0.338	0
96	20385	0.338	0
96	20388	0.338	0
96	20405	0.338	0
96	20411	0.338	0
96	20417	0.338	0
96	20450	0.339	0
96	20456	0.339	0
96	20458	0.339	0
96	20496	0.34	0
96	20528	0.341	0
96	20534	0.341	0
96	20586	0.342	0
96	20592	0.342	0
96	20644	0.343	0
96	20650	0.343	0
96	20683	0.344	0
96	20686	0.344	0
96	20689	0.344	0
96	20698	0.344	0
96	20701	0.344	0
96	20704	0.344	0
96	20707	0.344	0
96	20710	0.344	0
96	20713	0.344	0
96	20730	0.344	0
96	20733	0.344	0
96	20739	0.344	0
96	20741	0.344	0
96	20779	0.345	0
96	20811	0.346	0
96	20817	0.346	0
96	20849	0.347	0
96	20855	0.347	0
96	20907	0.348	0
96	20913	0.348	0
96	20966	0.349	0
96	20972	0.349	0
96	20974	0.349	0
96	21003	0.35	0
96	21006	0.35	0
96	21009	0.35	0
96	21018	0.35	0
96	21021	0.35	0
96	21024	0.35	0
96	21027	0.35	0
96	21030	0.35	0
96	21033	0.35	0
96	21050	0.35	0
96	21062	0.35	0
96	21094	0.351	0
96	21100	0.351	0
96	21132	0.352	0
96	21138	0.352	0
96	21170	0.353	0
96	21176	0.353	0
96	21229	0.354	0
96	21235	0.354	0
96	21237	0.354	0
96	21295	0.355	0
96	21324	0.356	0
96	21327	0.356	0
96	21330	0.356	0
96	21339	0.356	0
96	21342	0.356	0
96	21345	0.356	0
96	21348	0.356	0
96	21351	0.356	0
96	21354	0.356	0
96	21371	0.356	0
96	21377	0.356	0
96	21383	0.356	0
96	21415	0.357	0
96	21421	0.357	0
96	21453	0.358	0
96	21459	0.358	0
96	21492	0.359	0
96	21498	0.359	0
96	21500	0.359	0
96	21558	0.36	0
96	21610	0.361	0
96	21616	0.361	0
96	21645	0.362	0
96	21648	0.362	0
96	21651	0.362	0
96	21660	0.362	0
96	21663	0.362	0
96	21666	0.362	0
96	21669	0.362	0
96	21672	0.362	0
96	21675	0.362	0
96	21692	0.362	0
96	21698	0.362	0
96	21704	0.362	0
96	21736	0.363	0
96	21742	0.363	0
96	21775	0.364	0
96	21781	0.364	0
96	21783	0.364	0
96	21821	0.365	0
96	21873	0.366	0
96	21879	0.366	0
96	21931	0.367	0
96	21937	0.367	0
96	21966	0.368	0
96	21969	0.368	0
96	21972	0.368	0
96	21981	0.368	0
96	21984	0.368	0
96	21987	0.368	0
96	21990	0.368	0
96	21993	0.368	0
96	21996	0.368	0
96	22013	0.368	0
96	22019	0.368	0
96	22025	0.368	0
96	22058	0.369	0
96	22064	0.369	0
96	22066	0.369	0
96	22104	0.37	0
96	22136	0.371	0
96	22142	0.371	0
96	22194	0.372	0
96	22200	0.372	0
96	22252	0.373	0
96	22258	0.373	0
96	22291	0.374	0
96	22294	0.374	0
96	22297	0.374	0
96	22306	0.374	0
96	22309	0.374	0
96	22312	0.374	0
96	22315	0.374	0
96	22318	0.374	0
96	22321	0.374	0
96	22338	0.374	0
96	22341	0.374	0
96	22347	0.374	0
96	22349	0.374	0
96	22387	0.375	0
96	22419	0.376	0
96	22425	0.376	0
96	22457	0.377	0
96	22463	0.377	0
96	22515	0.378	0
96	22521	0.378	0
96	22574	0.379	0
96	22580	0.379	0
96	22582	0.379	0
96	22611	0.38	0
96	22614	0.38	0
96	22617	0.38	0
96	22626	0.38	0
96	22629	0.38	0
96	22632	0.38	0
96	22635	0.38	0
96	22638	0.38	0
96	22641	0.38	0
96	22658	0.38	0
96	22670	0.38	0
96	22702	0.381	0
96	22708	0.381	0
96	22740	0.382	0
96	22746	0.382	0
96	22778	0.383	0
96	22784	0.383	0
96	22837	0.384	0
96	22843	0.384	0
96	22845	0.384	0
96	22903	0.385	0
96	22932	0.386	0
96	22935	0.386	0
96	22938	0.386	0
96	22947	0.386	0
96	22950	0.386	0
96	22953	0.386	0
96	22956	0.386	0
96	22959	0.386	0
96	22962	0.386	0
96	22979	0.386	0
96	22985	0.386	0
96	22991	0.386	0
96	23023	0.387	0
96	23029	0.387	0
96	23061	0.388	0
96	23067	0.388	0
96	23100	0.389	0
96	23106	0.389	0
96	23108	0.389	0
96	23166	0.39	0
96	23218	0.391	0
96	23224	0.391	0
96	23253	0.392	0
96	23256	0.392	0
96	23259	0.392	0
96	23268	0.392	0
96	23271	0.392	0
96	23274	0.392	0
96	23277	0.392	0
96	23280	0.392	0
96	23283	0.392	0
96	23300	0.392	0
96	23306	0.392	0
96	23312	0.392	0
96	23344	0.393	0
96	23350	0.393	0
96	23383	0.394	0
96	23389	0.394	0
96	23391	0.394	0
96	23429	0.395	0
96	23481	0.396	0
96	23487	0.396	0
96	23539	0.397	0
96	23545	0.397	0
96	23574	0.398	0
96	23577	0.398	0
96	23580	0.398	0
96	23589	0.398	0
96	23592	0.398	0
96	23595	0.398	0
96	23598	0.398	0
96	23601	0.398	0
96	23604	0.398	0
96	23621	0.398	0
96	23627	0.398	0
96	23633	0.398	0
96	23666	0.399	0
96	23672	0.399	0
96	23674	0.399	0
96	23712	0.4	0
96	23744	0.401	0
96	23750	0.401	0
96	23802	0.402	0
96	23808	0.402	0
96	23860	0.403	0
96	23866	0.403	0
96	23899	0.404	0
96	23902	0.404	0
96	23905	0.404	0
96	23914	0.404	0
96	23917	0.404	0
96	23920	0.404	0
96	23923	0.404	0
96	23926	0.404	0
96	23929	0.404	0
96	23946	0.404	0
96	23949	0.404	0
96	23955	0.404	0
96	23957	0.404	0
96	23995	0.405	0
96	24027	0.406	0
96	24033	0.406	0
96	24065	0.407	0
96	24071	0.407	0
96	24131	0.408	0
96	24137	0.408	0
96	24190	0.409	0
96	24196	0.409	0
96	24198	0.409	0
96	24227	0.41	0
96	24230	0.41	0
96	24233	0.41	0
96	24242	0.41	0
96	24245	0.41	0
96	24248	0.41	0
96	24251	0.41	0
96	24254	0.41	0
96	24257	0.41	0
96	24274	0.41	0
96	24286	0.41	0
96	24318	0.411	0
96	24324	0.411	0
96	24356	0.412	0
96	24362	0.412	0
96	24394	0.413	0
96	24400	0.413	0
96	24453	0.414	0
96	24459	0.414	0
96	24461	0.414	0
96	24519	0.415	0
96	24548	0.416	0
96	24551	0.416	0
96	24554	0.416	0
96	24563	0.416	0
96	24566	0.416	0
96	24569	0.416	0
96	24572	0.416	0
96	24575	0.416	0
96	24578	0.416	0
96	24595	0.416	0
96	24601	0.416	0
96	24607	0.416	0
96	24639	0.417	0
96	24645	0.417	0
96	24677	0.418	0
96	24683	0.418	0
96	24716	0.419	0
96	24722	0.419	0
96	24724	0.419	0
96	24782	0.42	0
96	24834	0.421	0
96	24840	0.421	0
96	24869	0.422	0
96	24872	0.422	0
96	24875	0.422	0
96	24884	0.422	0
96	24887	0.422	0
96	24890	0.422	0
96	24893	0.422	0
96	24896	0.422	0
96	24899	0.422	0
96	24916	0.422	0
96	24922	0.422	0
96	24928	0.422	0
96	24960	0.423	0
96	24966	0.423	0
96	24999	0.424	0
96	25005	0.424	0
96	25007	0.424	0
96	25045	0.425	0
96	25097	0.426	0
96	25103	0.426	0
96	25155	0.427	0
96	25161	0.427	0
96	25190	0.428	0
96	25193	0.428	0
96	25196	0.428	0
96	25205	0.428	0
96	25208	0.428	0
96	25211	0.428	0
96	25214	0.428	0
96	25217	0.428	0
96	25220	0.428	0
96	25237	0.428	0
96	25243	0.428	0
96	25249	0.428	0
96	25282	0.429	0
96	25288	0.429	0
96	25290	0.429	0
96	25328	0.43	0
96	25360	0.431	0
96	25366	0.431	0
96	25418	0.432	0
96	25424	0.432	0
96	25476	0.433	0
96	25482	0.433	0
96	25515	0.434	0
96	25518	0.434	0
96	25521	0.434	0
96	25530	0.434	0
96	25533	0.434	0
96	25536	0.434	0
96	25539	0.434	0
96	25542	0.434	0
96	25545	0.434	0
96	25562	0.434	0
96	25565	0.434	0
96	25571	0.434	0
96	25573	0.434	0
96	25611	0.435	0
96	25643	0.436	0
96	25649	0.436	0
96	25681	0.437	0
96	25687	0.437	0
96	25739	0.438	0
96	25745	0.438	0
96	25798	0.439	0
96	25804	0.439	0
96	25806	0.439	0
96	25835	0.44	0
96	25838	0.44	0
96	25841	0.44	0
96	25850	0.44	0
96	25853	0.44	0
96	25856	0.44	0
96	25859	0.44	0
96	25862	0.44	0
96	25865	0.44	0
96	25882	0.44	0
96	25894	0.44	0
96	25926	0.441	0
96	25932	0.441	0
96	25964	0.442	0
96	25970	0.442	0
96	26002	0.443	0
96	26008	0.443	0
96	26061	0.444	0
96	26067	0.444	0
96	26069	0.444	0
96	26127	0.445	0
96	26156	0.446	0
96	26159	0.446	0
96	26162	0.446	0
96	26171	0.446	0
96	26174	0.446	0
96	26177	0.446	0
96	26180	0.446	0
96	26183	0.446	0
96	26186	0.446	0
96	26203	0.446	0
96	26209	0.446	0
96	26215	0.446	0
96	26247	0.447	0
96	26253	0.447	0
96	26285	0.448	0
96	26291	0.448	0
96	26324	0.449	0
96	26330	0.449	0
96	26332	0.449	0
96	26390	0.45	0
96	26442	0.451	0
96	26448	0.451	0
96	26477	0.452	0
96	26480	0.452	0
96	26483	0.452	0
96	26492	0.452	0
96	26495	0.452	0
96	26498	0.452	0
96	26501	0.452	0
96	26504	0.452	0
96	26507	0.452	0
96	26524	0.452	0
96	26530	0.452	0
96	26536	0.452	0
96	26568	0.453	0
96	26574	0.453	0
96	26607	0.454	0
96	26613	0.454	0
96	26615	0.454	0
96	26653	0.455	0
96	26705	0.456	0
96	26711	0.456	0
96	26763	0.457	0
96	26769	0.457	0
96	26806	0.458	0
96	26809	0.458	0
96	26812	0.458	0
96	26821	0.458	0
96	26824	0.458	0
96	26827	0.458	0
96	26830	0.458	0
96	26833	0.458	0
96	26836	0.458	0
96	26853	0.458	0
96	26859	0.458	0
96	26865	0.458	0
96	26898	0.459	0
96	26904	0.459	0
96	26906	0.459	0
96	26944	0.46	0
96	26976	0.461	0
96	26982	0.461	0
96	27034	0.462	0
96	27040	0.462	0
96	27092	0.463	0
96	27098	0.463	0
96	27131	0.464	0
[...]
1174	12560	0.2070005104	104
1174	12560	0.2070005104	106
1174	12560	0.2070005104	108
1174	12560	0.2070005104	110
1174	12560	0.2070005104	112
1174	12560	0.2070005104	114
1174	12560	0.2070005104	116
1174	12560	0.2070005104	118
1174	12560	0.2070005104	120
1174	12560	0.2070005104	122
1174	12560	0.2070005104	124
1174	12560	0.2070005104	126
1174	12560	0.2070005104	128
1174	12560	0.2070005104	130
1174	12560	0.2070005104	132
1174	12560	0.2070005104	134
1174	12560	0.2070005104	136
1174	12560	0.2070005104	138
1174	12560	0.2070005104	140
1174	12560	0.2070005104	142
1174	12560	0.2070005104	144
1174	12560	0.2070005104	146
1174	12560	0.2070005104	148
1174	12560	0.2070005104	150
1174	12560	0.2070005104	152
1174	12560	0.2070005104	154
1174	12560	0.2070005104	156
1174	12560	0.2070005104	158
1174	12560	0.2070005104	160
1174	24080	0.4070019656	158
1174	24080	0.4070019656	156
1174	24080	0.4070019656	154
1174	24080	0.4070019656	152
1174	24080	0.4070019656	150
1174	24080	0.4070019656	148
1174	24080	0.4070019656	146
1174	24080	0.4070019656	144
1174	24080	0.4070019656	142
1174	24080	0.4070019656	140
1174	24080	0.4070019656	138
1174	24080	0.4070019656	136
1174	24080	0.4070019656	134
1174	24080	0.4070019656	132
1174	24080	0.4070019656	130
1174	24080	0.4070019656	128
1174	24080	0.4070019656	126
1174	24080	0.4070019656	124
1174	24080	0.4070019656	122
1174	24080	0.4070019656	120
1174	24080	0.4070019656	118
1174	24080	0.4070019656	116
1174	24080	0.4070019656	114
1174	24080	0.4070019656	112
1174	24080	0.4070019656	110
1174	24080	0.4070019656	108
1174	24080	0.4070019656	106
1174	24080	0.4070019656	104
1174	24080	0.4070019656	102
1174	24080	0.4070019656	100
1174	24080	0.4070019656	98
1174	24080	0.4070019656	96
1174	24080	0.4070019656	94
1174	24080	0.4070019656	92
1174	24080	0.4070019656	90
1174	24080	0.4070019656	88
1174	24080	0.4070019656	86
1174	24080	0.4070019656	84
1174	24080	0.4070019656	82
1174	24080	0.4070019656	80
1174	24080	0.4070019656	78
1174	24080	0.4070019656	76
1174	24080	0.4070019656	74
1174	24080	0.4070019656	72
1174	24080	0.4070019656	70
1174	24080	0.4070019656	68
1174	24080	0.4070019656	66
1174	24080	0.4070019656	64
1174	24080	0.4070019656	62
1174	24080	0.4070019656	60
1174	24080	0.4070019656	58
1174	24080	0.4070019656	56
1174	24080	0.4070019656	54
1174	24080	0.4070019656	52
1174	24080	0.4070019656	50
1174	24080	0.4070019656	48
1174	24080	0.4070019656	46
1174	24080	0.4070019656	44
1174	24080	0.4070019656	42
1174	24080	0.4070019656	40
1174	24080	0.4070019656	38
1174	24080	0.4070019656	36
1174	24080	0.4070019656	34
1174	24080	0.4070019656	32
1174	24080	0.4070019656	30
1174	24080	0.4070019656	28
1174	24080	0.4070019656	26
1174	24080	0.4070019656	24
1174	24080	0.4070019656	22
1174	24080	0.4070019656	20
1174	24080	0.4070019656	18
1174	24080	0.4070019656	16
1174	24080	0.4070019656	14
1174	24080	0.4070019656	12
1174	24080	0.4070019656	10
1174	24080	0.4070019656	8
1174	24080	0.4070019656	6
1174	24080	0.4070019656	4
1174	24080	0.4070019656	2
1174	24080	0.4070019656	0
1175	605	0.007	2
1175	659	0.0070001912	0
1175	659	0.0070001912	2
1175	659	0.0070001912	4
1175	659	0.0070001912	6
1175	659	0.0070001912	8
1175	659	0.0070001912	10
1175	659	0.0070001912	12
1175	659	0.0070001912	14
1175	659	0.0070001912	16
1175	659	0.0070001912	18
1175	12560	0.2070005104	16
1175	12560	0.2070005104	14
1175	12560	0.2070005104	12
1175	12560	0.2070005104	10
1175	12560	0.2070005104	8
1175	12560	0.2070005104	6
1175	12560	0.2070005104	4
1175	12560	0.2070005104	2
1175	12560	0.2070005104	0
1175	12560	0.2070005104	2
1175	12560	0.2070005104	4
1175	12560	0.2070005104	6
1175	12560	0.2070005104	8
1175	12560	0.2070005104	10
1175	12560	0.2070005104	12
1175	12560	0.2070005104	14
1175	12560	0.2070005104	16
1175	12560	0.2070005104	18
1175	12560	0.2070005104	20
1175	12560	0.2070005104	22
1175	12560	0.2070005104	24
1175	12560	0.2070005104	26
1175	12560	0.2070005104	28
1175	12560	0.2070005104	30
1175	12560	0.2070005104	32
1175	12560	0.2070005104	34
1175	12560	0.2070005104	36
1175	12560	0.2070005104	38
1175	12560	0.2070005104	40
1175	12560	0.2070005104	42
1175	12560	0.2070005104	44
1175	12560	0.2070005104	46
1175	12560	0.2070005104	48
1175	12560	0.2070005104	50
1175	12560	0.2070005104	52
1175	12560	0.2070005104	54
1175	12560	0.2070005104	56
1175	12560	0.2070005104	58
1175	12560	0.2070005104	60
1175	12560	0.2070005104	62
1175	12560	0.2070005104	64
1175	12560	0.2070005104	66
1175	12560	0.2070005104	68
1175	12560	0.2070005104	70
1175	12560	0.2070005104	72
1175	12560	0.2070005104	74
1175	12560	0.2070005104	76
1175	12560	0.2070005104	78
1175	12560	0.2070005104	80
1175	12560	0.2070005104	82
1175	12560	0.2070005104	84
1175	12560	0.2070005104	86
1175	12560	0.2070005104	88
1175	12560	0.2070005104	90
1175	12560	0.2070005104	92
1175	12560	0.2070005104	94
1175	12560	0.2070005104	96
1175	12560	0.2070005104	98
1175	12560	0.2070005104	100
1175	12560	0.2070005104	102
1175	12560	0.2070005104	104
1175	12560	0.2070005104	106
1175	12560	0.2070005104	108
1175	12560	0.2070005104	110
1175	12560	0.2070005104	112
1175	12560	0.2070005104	114
1175	12560	0.2070005104	116
1175	12560	0.2070005104	118
1175	12560	0.2070005104	120
1175	12560	0.2070005104	122
1175	12560	0.2070005104	124
1175	12560	0.2070005104	126
1175	12560	0.2070005104	128
1175	12560	0.2070005104	130
1175	12560	0.2070005104	132
1175	12560	0.2070005104	134
1175	12560	0.2070005104	136
1175	12560	0.2070005104	138
1175	12560	0.2070005104	140
1175	12560	0.2070005104	142
1175	12560	0.2070005104	144
1175	12560	0.2070005104	146
1175	12560	0.2070005104	148
1175	12560	0.2070005104	150
1175	12560	0.2070005104	152
1175	12560	0.2070005104	154
1175	12560	0.2070005104	156
1175	12560	0.2070005104	158
1175	12560	0.2070005104	160
1175	24080	0.4070019656	158
1175	24080	0.4070019656	156
1175	24080	0.4070019656	154
1175	24080	0.4070019656	152
1175	24080	0.4070019656	150
1175	24080	0.4070019656	148
1175	24080	0.4070019656	146
1175	24080	0.4070019656	144
1175	24080	0.4070019656	142
1175	24080	0.4070019656	140
1175	24080	0.4070019656	138
1175	24080	0.4070019656	136
1175	24080	0.4070019656	134
1175	24080	0.4070019656	132
1175	24080	0.4070019656	130
1175	24080	0.4070019656	128
1175	24080	0.4070019656	126
1175	24080	0.4070019656	124
1175	24080	0.4070019656	122
1175	24080	0.4070019656	120
1175	24080	0.4070019656	118
1175	24080	0.4070019656	116
1175	24080	0.4070019656	114
1175	24080	0.4070019656	112
1175	24080	0.4070019656	110
1175	24080	0.4070019656	108
1175	24080	0.4070019656	106
1175	24080	0.4070019656	104
1175	24080	0.4070019656	102
1175	24080	0.4070019656	100
1175	24080	0.4070019656	98
1175	24080	0.4070019656	96
1175	24080	0.4070019656	94
1175	24080	0.4070019656	92
1175	24080	0.4070019656	90
1175	24080	0.4070019656	88
1175	24080	0.4070019656	86
1175	24080	0.4070019656	84
1175	24080	0.4070019656	82
1175	24080	0.4070019656	80
1175	24080	0.4070019656	78
1175	24080	0.4070019656	76
1175	24080	0.4070019656	74
1175	24080	0.4070019656	72
1175	24080	0.4070019656	70
1175	24080	0.4070019656	68
1175	24080	0.4070019656	66
1175	24080	0.4070019656	64
1175	24080	0.4070019656	62
1175	24080	0.4070019656	60
1175	24080	0.4070019656	58
1175	24080	0.4070019656	56
1175	24080	0.4070019656	54
1175	24080	0.4070019656	52
1175	24080	0.4070019656	50
1175	24080	0.4070019656	48
1175	24080	0.4070019656	46
1175	24080	0.4070019656	44
1175	24080	0.4070019656	42
1175	24080	0.4070019656	40
1175	24080	0.4070019656	38
1175	24080	0.4070019656	36
1175	24080	0.4070019656	34
1175	24080	0.4070019656	32
1175	24080	0.4070019656	30
1175	24080	0.4070019656	28
1175	24080	0.4070019656	26
1175	24080	0.4070019656	24
1175	24080	0.4070019656	22
1175	24080	0.4070019656	20
1175	24080	0.4070019656	18
1175	24080	0.4070019656	16
1175	24080	0.4070019656	14
1175	24080	0.4070019656	12
1175	24080	0.4070019656	10
1175	24080	0.4070019656	8
1175	24080	0.4070019656	6
1175	24080	0.4070019656	4
1175	24080	0.4070019656	2
1175	24080	0.4070019656	0
1178	659	0.0070001912	0
1178	12560	0.2070005104	0
1178	24080	0.4070019656	0
1179	659	0.0070001912	0
1179	12560	0.2070005104	0
1179	24080	0.4070019656	0
1180	659	0.0070001912	0
1180	12560	0.2070005104	0
1180	24080	0.4070019656	0
1181	659	0.0070001912	0
1181	12560	0.2070005104	0
1181	24080	0.4070019656	0
1182	150	0.0000001228	0
1185	659	0.0070001912	2000
1185	12560	0.2070005104	2009
1185	24080	0.4070019656	2089
1187	659	0.0070001912	0
1187	12560	0.2070005104	0
1187	24080	0.4070019656	0
1188	659	0.0070001912	0
1188	12560	0.2070005104	0
1188	24080	0.4070019656	0
1190	235	0.0000006304	3
1192	235	0.0000006304	65535
1193	235	0.0000006304	8940
1194	235	0.0000006304	0.3725
1197	235	0.0000006304	1
1209	163	0.0000003096	0
1217	235	0.0000006304	3
1219	235	0.0000006304	65535
1220	235	0.0000006304	8940
1221	235	0.0000006304	0.3725
1224	235	0.0000006304	1
1236	163	0.0000003096	0
1244	236	0.0000006304	3
1246	236	0.0000006304	65535
1247	236	0.0000006304	8940
1248	236	0.0000006304	0.3725
1251	236	0.0000006304	1
1263	164	0.0000003096	0
1271	236	0.0000006304	3
1273	236	0.0000006304	65535
1274	236	0.0000006304	8940
1275	236	0.0000006304	0.3725
1278	236	0.0000006304	1
1290	164	0.0000003096	0
1300	3883	0.0570001912	0
1300	15625	0.2570005104	0
1300	26778	0.4570019656	0
1301	3794	0.057	1
1301	3794	0.057	0
1301	3795	0.057	1
1301	3796	0.057	2
1301	3797	0.057	3
1301	3798	0.057	4
1301	3799	0.057	5
1301	3800	0.057	6
1301	3801	0.057	7
1301	3802	0.057	8
1301	3803	0.057	9
1301	3883	0.0570001912	8
1301	3883	0.0570001912	7
1301	3883	0.0570001912	6
1301	3883	0.0570001912	5
1301	3883	0.0570001912	4
1301	3883	0.0570001912	3
1301	3883	0.0570001912	2
1301	3883	0.0570001912	1
1301	3883	0.0570001912	0
1301	4326	0.063	1
1301	4327	0.063	2
1301	4328	0.063	3
1301	4329	0.063	4
1301	4330	0.063	5
1301	4331	0.063	6
1301	4332	0.063	7
1301	4333	0.063	8
1301	4334	0.063	9
1301	4335	0.063	10
1301	4776	0.069	11
1301	4777	0.069	12
1301	4778	0.069	13
1301	4779	0.069	14
1301	4780	0.069	15
1301	4781	0.069	16
1301	4782	0.069	17
1301	4783	0.069	18
1301	4784	0.069	19
1301	4785	0.069	20
1301	5171	0.075	21
1301	5172	0.075	22
1301	5173	0.075	23
1301	5174	0.075	24
1301	5175	0.075	25
1301	5176	0.075	26
1301	5177	0.075	27
1301	5178	0.075	28
1301	5179	0.075	29
1301	5180	0.075	30
1301	5568	0.081	31
1301	5569	0.081	32
1301	5570	0.081	33
1301	5571	0.081	34
1301	5572	0.081	35
1301	5573	0.081	36
1301	5574	0.081	37
1301	5575	0.081	38
1301	5576	0.081	39
1301	5577	0.081	40
1301	5938	0.087	41
1301	5939	0.087	42
1301	5940	0.087	43
1301	5941	0.087	44
1301	5942	0.087	45
1301	5943	0.087	46
1301	5944	0.087	47
1301	5945	0.087	48
1301	5946	0.087	49
1301	5947	0.087	50
1301	6309	0.093	51
1301	6310	0.093	52
1301	6311	0.093	53
1301	6312	0.093	54
1301	6313	0.093	55
1301	6314	0.093	56
1301	6315	0.093	57
1301	6316	0.093	58
1301	6317	0.093	59
1301	6318	0.093	60
1301	6677	0.099	61
1301	6678	0.099	62
1301	6679	0.099	63
1301	6680	0.099	64
1301	6681	0.099	65
1301	6682	0.099	66
1301	6683	0.099	67
1301	6684	0.099	68
1301	6685	0.099	69
1301	6686	0.099	70
1301	7038	0.105	71
1301	7039	0.105	72
1301	7040	0.105	73
1301	7041	0.105	74
1301	7042	0.105	75
1301	7043	0.105	76
1301	7044	0.105	77
1301	7045	0.105	78
1301	7046	0.105	79
1301	7047	0.105	80
1301	15625	0.2570005104	79
1301	15625	0.2570005104	78
1301	15625	0.2570005104	77
1301	15625	0.2570005104	76
1301	15625	0.2570005104	75
1301	15625	0.2570005104	74
1301	15625	0.2570005104	73
1301	15625	0.2570005104	72
1301	15625	0.2570005104	71
1301	15625	0.2570005104	70
1301	15625	0.2570005104	69
1301	15625	0.2570005104	68
1301	15625	0.2570005104	67
1301	15625	0.2570005104	66
1301	15625	0.2570005104	65
1301	15625	0.2570005104	64
1301	15625	0.2570005104	63
1301	15625	0.2570005104	62
1301	15625	0.2570005104	61
1301	15625	0.2570005104	60
1301	15625	0.2570005104	59
1301	15625	0.2570005104	58
1301	15625	0.2570005104	57
1301	15625	0.2570005104	56
1301	15625	0.2570005104	55
1301	15625	0.2570005104	54
1301	15625	0.2570005104	53
1301	15625	0.2570005104	52
1301	15625	0.2570005104	51
1301	15625	0.2570005104	50
1301	15625	0.2570005104	49
1301	15625	0.2570005104	48
1301	15625	0.2570005104	47
1301	15625	0.2570005104	46
1301	15625	0.2570005104	45
1301	15625	0.2570005104	44
1301	15625	0.2570005104	43
1301	15625	0.2570005104	42
1301	15625	0.2570005104	41
1301	15625	0.2570005104	40
1301	15625	0.2570005104	39
1301	15625	0.2570005104	38
1301	15625	0.2570005104	37
1301	15625	0.2570005104	36
1301	15625	0.2570005104	35
1301	15625	0.2570005104	34
1301	15625	0.2570005104	33
1301	15625	0.2570005104	32
1301	15625	0.2570005104	31
1301	15625	0.2570005104	30
1301	15625	0.2570005104	29
1301	15625	0.2570005104	28
1301	15625	0.2570005104	27
1301	15625	0.2570005104	26
1301	15625	0.2570005104	25
1301	15625	0.2570005104	24
1301	15625	0.2570005104	23
1301	15625	0.2570005104	22
1301	15625	0.2570005104	21
1301	15625	0.2570005104	20
1301	15625	0.2570005104	19
1301	15625	0.2570005104	18
1301	15625	0.2570005104	17
1301	15625	0.2570005104	16
1301	15625	0.2570005104	15
1301	15625	0.2570005104	14
1301	15625	0.2570005104	13
1301	15625	0.2570005104	12
1301	15625	0.2570005104	11
1301	15625	0.2570005104	10
1301	15625	0.2570005104	9
1301	15625	0.2570005104	8
1301	15625	0.2570005104	7
1301	15625	0.2570005104	6
1301	15625	0.2570005104	5
1301	15625	0.2570005104	4
1301	15625	0.2570005104	3
1301	15625	0.2570005104	2
1301	15625	0.2570005104	1
1301	15625	0.2570005104	0
1304	659	0.0070001912	0
1304	12560	0.2070005104	0
1304	24080	0.4070019656	0
1305	605	0.007	1
1305	605	0.007	0
1305	606	0.007	1
1305	607	0.007	2
1305	608	0.007	3
1305	609	0.007	4
1305	610	0.007	5
1305	611	0.007	6
1305	612	0.007	7
1305	613	0.007	8
1305	614	0.007	9
1305	659	0.0070001912	8
1305	659	0.0070001912	7
1305	659	0.0070001912	6
1305	659	0.0070001912	5
1305	659	0.0070001912	4
1305	659	0.0070001912	3
1305	659	0.0070001912	2
1305	659	0.0070001912	1
1305	659	0.0070001912	0
1305	940	0.013	1
1305	941	0.013	2
1305	942	0.013	3
1305	943	0.013	4
1305	944	0.013	5
1305	945	0.013	6
1305	946	0.013	7
1305	947	0.013	8
1305	948	0.013	9
1305	949	0.013	10
1305	1249	0.019	11
1305	1250	0.019	12
1305	1251	0.019	13
1305	1252	0.019	14
1305	1253	0.019	15
1305	1254	0.019	16
1305	1255	0.019	17
1305	1256	0.019	18
1305	1257	0.019	19
1305	1258	0.019	20
1305	1569	0.025	21
1305	1570	0.025	22
1305	1571	0.025	23
1305	1572	0.025	24
1305	1573	0.025	25
1305	1574	0.025	26
1305	1575	0.025	27
1305	1576	0.025	28
1305	1577	0.025	29
1305	1578	0.025	30
1305	1917	0.031	31
1305	1918	0.031	32
1305	1919	0.031	33
1305	1920	0.031	34
1305	1921	0.031	35
1305	1922	0.031	36
1305	1923	0.031	37
1305	1924	0.031	38
1305	1925	0.031	39
1305	1926	0.031	40
1305	2310	0.037	41
1305	2311	0.037	42
1305	2312	0.037	43
1305	2313	0.037	44
1305	2314	0.037	45
1305	2315	0.037	46
1305	2316	0.037	47
1305	2317	0.037	48
1305	2318	0.037	49
1305	2319	0.037	50
1305	2734	0.043	51
1305	2735	0.043	52
1305	2736	0.043	53
1305	2737	0.043	54
1305	2738	0.043	55
1305	2739	0.043	56
1305	2740	0.043	57
1305	2741	0.043	58
1305	2742	0.043	59
1305	2743	0.043	60
1305	3157	0.049	61
1305	3158	0.049	62
1305	3159	0.049	63
1305	3160	0.049	64
1305	3161	0.049	65
1305	3162	0.049	66
1305	3163	0.049	67
1305	3164	0.049	68
1305	3165	0.049	69
1305	3166	0.049	70
1305	3601	0.055	71
1305	3602	0.055	72
1305	3603	0.055	73
1305	3604	0.055	74
1305	3605	0.055	75
1305	3606	0.055	76
1305	3607	0.055	77
1305	3608	0.055	78
1305	3609	0.055	79
1305	3610	0.055	80
1305	12560	0.2070005104	79
1305	12560	0.2070005104	78
1305	12560	0.2070005104	77
1305	12560	0.2070005104	76
1305	12560	0.2070005104	75
1305	12560	0.2070005104	74
1305	12560	0.2070005104	73
1305	12560	0.2070005104	72
1305	12560	0.2070005104	71
1305	12560	0.2070005104	70
1305	12560	0.2070005104	69
1305	12560	0.2070005104	68
1305	12560	0.2070005104	67
1305	12560	0.2070005104	66
1305	12560	0.2070005104	65
1305	12560	0.2070005104	64
1305	12560	0.2070005104	63
1305	12560	0.2070005104	62
1305	12560	0.2070005104	61
1305	12560	0.2070005104	60
1305	12560	0.2070005104	59
1305	12560	0.2070005104	58
1305	12560	0.2070005104	57
1305	12560	0.2070005104	56
1305	12560	0.2070005104	55
1305	12560	0.2070005104	54
1305	12560	0.2070005104	53
1305	12560	0.2070005104	52
1305	12560	0.2070005104	51
1305	12560	0.2070005104	50
1305	12560	0.2070005104	49
1305	12560	0.2070005104	48
1305	12560	0.2070005104	47
1305	12560	0.2070005104	46
1305	12560	0.2070005104	45
1305	12560	0.2070005104	44
1305	12560	0.2070005104	43
1305	12560	0.2070005104	42
1305	12560	0.2070005104	41
1305	12560	0.2070005104	40
1305	12560	0.2070005104	39
1305	12560	0.2070005104	38
1305	12560	0.2070005104	37
1305	12560	0.2070005104	36
1305	12560	0.2070005104	35
1305	12560	0.2070005104	34
1305	12560	0.2070005104	33
1305	12560	0.2070005104	32
1305	12560	0.2070005104	31
1305	12560	0.2070005104	30
1305	12560	0.2070005104	29
1305	12560	0.2070005104	28
1305	12560	0.2070005104	27
1305	12560	0.2070005104	26
1305	12560	0.2070005104	25
1305	12560	0.2070005104	24
1305	12560	0.2070005104	23
1305	12560	0.2070005104	22
1305	12560	0.2070005104	21
1305	12560	0.2070005104	20
1305	12560	0.2070005104	19
1305	12560	0.2070005104	18
1305	12560	0.2070005104	17
1305	12560	0.2070005104	16
1305	12560	0.2070005104	15
1305	12560	0.2070005104	14
1305	12560	0.2070005104	13
1305	12560	0.2070005104	12
1305	12560	0.2070005104	11
1305	12560	0.2070005104	10
1305	12560	0.2070005104	9
1305	12560	0.2070005104	8
1305	12560	0.2070005104	7
1305	12560	0.2070005104	6
1305	12560	0.2070005104	5
1305	12560	0.2070005104	4
1305	12560	0.2070005104	3
1305	12560	0.2070005104	2
1305	12560	0.2070005104	1
1305	12560	0.2070005104	0
1319	893	0.012270864309	7504
1319	163724	3.012270864309	7504
1320	893	0.012270864309	7504
1320	163724	3.012270864309	7504
1322	893	0.012270864309	0
1322	163724	3.012270864309	0
1333	893	0.012270864309	0
1333	163724	3.012270864309	0
1343	978	0.013169782835	7504
1343	163792	3.013169782835	7504
1344	978	0.013169782835	7504
1344	163792	3.013169782835	7504
1346	978	0.013169782835	0
1346	163792	3.013169782835	0
1357	978	0.013169782835	0
1357	163792	3.013169782835	0
1367	986	0.013528948517	7504
1367	163799	3.013528948517	7504
1368	986	0.013528948517	7504
1368	163799	3.013528948517	7504
1370	986	0.013528948517	0
1370	163799	3.013528948517	0
1381	986	0.013528948517	0
1381	163799	3.013528948517	0
1391	1391	0.021843716542	7504
1392	1391	0.021843716542	7504
1394	1391	0.021843716542	0
1405	1391	0.021843716542	0
1415	1522	0.024352218178	7504
1416	1522	0.024352218178	7504
1418	1522	0.024352218178	0
1429	1522	0.024352218178	0
1439	1618	0.025271030879	7504
1440	1618	0.025271030879	7504
1442	1618	0.025271030879	0
1453	1618	0.025271030879	0
1463	2040	0.032546852513	7504
1464	2040	0.032546852513	7504
1466	2040	0.032546852513	0
1477	2040	0.032546852513	0
1487	2139	0.034129833705	7504
1488	2139	0.034129833705	7504
1490	2139	0.034129833705	0
1501	2139	0.034129833705	0
1511	2147	0.034439526021	7504
1512	2147	0.034439526021	7504
1514	2147	0.034439526021	0
1525	2147	0.034439526021	0
1535	2367	0.037261432968	7504
1536	2367	0.037261432968	7504
1538	2367	0.037261432968	0
1549	2367	0.037261432968	0
1559	3033	0.047532676856	7504
1560	3033	0.047532676856	7504
1562	3033	0.047532676856	0
1573	3033	0.047532676856	0
1583	3110	0.048413756283	7504
1584	3110	0.048413756283	7504
1586	3110	0.048413756283	0
1597	3110	0.048413756283	0
1607	3348	0.051566809383	7504
1608	3348	0.051566809383	7504
1610	3348	0.051566809383	0
1621	3348	0.051566809383	0
1631	3412	0.05273845314	7504
1632	3412	0.05273845314	7504
1634	3412	0.05273845314	0
1645	3412	0.05273845314	0
1655	3420	0.052847558425	7504
1656	3420	0.052847558425	7504
1658	3420	0.052847558425	0
1669	3420	0.052847558425	0
1679	3937	0.057084039294	7504
1680	3937	0.057084039294	7504
1682	3937	0.057084039294	0
1693	3937	0.057084039294	0
1703	4179	0.061955560849	7504
1704	4179	0.061955560849	7504
1706	4179	0.061955560849	0
1717	4179	0.061955560849	0
1727	4441	0.064453871725	7504
1728	4441	0.064453871725	7504
1730	4441	0.064453871725	0
1741	4441	0.064453871725	0
1751	5223	0.075361895796	7504
1752	5223	0.075361895796	7504
1754	5223	0.075361895796	0
1765	5223	0.075361895796	0
1775	6182	0.091364573385	7504
1776	6182	0.091364573385	7504
1778	6182	0.091364573385	0
1789	6182	0.091364573385	0
