version 2
run CAIN-35-20200508-17:08:46-16288
attr configname CAIN
attr datetime 20200508-17:08:46
attr dist 200
attr experiment CAIN
attr inifile omnetpp.ini
attr iterationvars "$numUe=25, $pwr=-50, $dist=200, $mob=\"./movements/RWP-0.5.movements\""
attr iterationvars2 "$numUe=25, $pwr=-50, $dist=200, $mob=\"./movements/RWP-0.5.movements\", $repetition=0"
attr measurement "$numUe=25, $pwr=-50, $dist=200, $mob=\"./movements/RWP-0.5.movements\""
attr mob "\"./movements/RWP-0.5.movements\""
attr network lte.simulations.networks.CAIN
attr numUe 25
attr processid 16288
attr pwr -50
attr repetition 0
attr replication #0
attr resultdir results
attr runnumber 35
attr seedset 0
param **.**.amcMode "\"AUTO\""
param **.amcMode "\"D2D\""
param **.cainNetwork true
param **.channelControl.alpha 1.0
param **.channelControl.carrierFrequency 2100e+6Hz
param **.channelControl.pMax 10W
param **.d2dCqi 7
param **.deployer.numRbDl 50
param **.deployer.numRbUl 50
param **.distThresh ${dist=200}
param **.fbDelay 1
param **.feedbackComputation "xmldoc(\"config_channel.xml\")"
param **.mobility.constraintAreaMaxX 1000m
param **.mobility.constraintAreaMaxY 1000m
param **.mobility.constraintAreaMaxZ 0m
param **.mobility.constraintAreaMinX 0m
param **.mobility.constraintAreaMinY 0m
param **.mobility.constraintAreaMinZ 0m
param **.nic.phy.channelModel "xmldoc(\"config_channel.xml\")"
param **.numBands 50
param **.pwrThresh "${pwr= -50}"
param **.qtdThresh 3
param **.rbAllocationType "\"localized\""
param **.routingRecorder.enabled false
param **.tcpApp[*].tClose -1s
param **.ueD2DTx[*].mobility.changeAngleBy "normal(0deg, 30deg)"
param **.ueD2DTx[*].mobility.changeInterval "normal(5s, 0.1s)"
param **.ueD2DTx[*].mobility.nodeId -1
param **.ueD2DTx[*].mobility.speed "normal(2mps, 0.01mps)"
param **.ueD2DTx[*].mobility.traceFile "${mob=\"./movements/RWP-0.0.movements\",\"./movements/RWP-0.5.movements\",\"./movements/RPGM-0.0.movements\",\"./movements/RPGM-0.5.movements\",\"./movements/RWPRPGM-0.0.movements\",\"./movements/RWPRPGM-0.5.movements\"}"
param **.ueD2DTx[*].mobilityType "\"BonnMotionMobility\""
param **.usePreconfiguredTxParams false
param *.eNodeB*.numX2Apps 1
param *.eNodeB*.x2App[*].server.localPort "5000 + ancestorIndex(1)"
param *.eNodeB.d2dCapable false
param *.eNodeB.mobility.initFromDisplayString false
param *.eNodeB.mobility.initialX 300m
param *.eNodeB.mobility.initialY 300m
param *.eNodeB.nic.phy.enableD2DCqiReporting true
param *.eNodeB.txPower 19952.62315mw
param *.eNodeB.x2App[0].client.connectAddress "\"eNodeB1%x2ppp0\""
param *.eNodeB1.d2dCapable true
param *.eNodeB1.mobility.initFromDisplayString false
param *.eNodeB1.mobility.initialX 700m
param *.eNodeB1.mobility.initialY 300m
param *.eNodeB1.nic.phy.enableD2DCqiReporting true
param *.eNodeB1.txPower 19952.62315mw
param *.eNodeB1.x2App[0].client.connectAddress "\"eNodeB%x2ppp0\""
param *.extCell[*].bandAllocationType "\"FULL_ALLOC\""
param *.extCell[*].bandUtilization 0.5
param *.extCell[*].txDirection "\"ANISOTROPIC\""
param *.extCell[*].txPower 20
param *.extCell[0].position_x 100m
param *.extCell[0].position_y 600m
param *.extCell[0].txAngle 315
param *.extCell[1].position_x 600m
param *.extCell[1].position_y 600m
param *.extCell[1].txAngle 225
param *.numExtCells 2
param *.numUeCell 0
param *.numUeD2DRx 1
param *.numUeD2DTx 1
param *.ue*.macCellId 1
param *.ue*.masterId 1
param *.ue*.mobility.initFromDisplayString false
param *.ue*[0].macCellId 1
param *.ue*[0].masterId 1
param *.ue*[0].mobility.initFromDisplayString false
param *.ueD2D*.numTcpApps 1
param *.ueD2D*[*].d2dCapable true
param *.ueD2D*[0].d2dCapable false
param *.ueD2D*[0].numTcpApps 1
param *.ueD2DRx[0].mobility.initialX 310m
param *.ueD2DRx[0].mobility.initialY 350m
param *.ueD2DRx[0].tcpApp[*].localPort 1000
param *.ueD2DRx[0].tcpApp[*].typename "\"TCPSinkApp\""
param *.ueD2DTx*.nic.d2dPeerAddresses "\"ueD2DTx[1]\""
param *.ueD2DTx*.tcpApp[*].connectAddress "\"ueD2DTx[0]\""
param *.ueD2DTx*.tcpApp[*].localAddress "\"ueD2DTx\""
param *.ueD2DTx*.tcpApp[*].localPort 1000
param *.ueD2DTx*.tcpApp[*].sendBytes 1GiB
param *.ueD2DTx*.tcpApp[*].typename "\"TCPSessionApp\""
param *.ueD2DTx*.tcpApp[0].active true
param *.ueD2DTx*.tcpApp[0].connectPort 1000
param *.ueD2DTx*.tcpApp[0].tOpen uniform(0.010s,0.1s)
param *.ueD2DTx*.tcpApp[0].tSend uniform(0.15s,0.5s)
param *.ueD2DTx[0].mobility.initialX 290m
param *.ueD2DTx[0].mobility.initialY 350m
param *.ueD2DTx[0].tcpApp[*].localPort 1000
param *.ueD2DTx[0].tcpApp[*].sendBytes 1GiB
param *.ueD2DTx[0].tcpApp[*].typename "\"TCPSessionApp\""
param *.ueD2DTx[0].tcpApp[0].active true
param *.ueD2DTx[0].tcpApp[0].connectAddress "\"ueD2DRx[0]\""
param *.ueD2DTx[0].tcpApp[0].connectPort 1000
param *.ueD2DTx[0].tcpApp[0].localAddress "\"ueD2DTx[0]\""
param *.ueD2DTx[0].tcpApp[0].tOpen uniform(0.010s,0.1s)
param *.ueD2DTx[0].tcpApp[0].tSend uniform(0.15s,0.5s)
param *.ueD2DTx[1].mobility.initialX 690m
param *.ueD2DTx[1].mobility.initialY 250m

vector 8  CAIN.server.ppp[0].queue  queueLength:vector  ETV
attr interpolationmode  sample-hold
attr title  "queue length, vector"
vector 9  CAIN.server.ppp[0].ppp  txState:vector  ETV
attr interpolationmode  sample-hold
attr title  "tx state, vector"
vector 24  CAIN.router.ppp[0].queue  queueLength:vector  ETV
attr interpolationmode  sample-hold
attr title  "queue length, vector"
vector 25  CAIN.router.ppp[0].ppp  txState:vector  ETV
attr interpolationmode  sample-hold
attr title  "tx state, vector"
vector 35  CAIN.router.ppp[1].queue  queueLength:vector  ETV
attr interpolationmode  sample-hold
attr title  "queue length, vector"
vector 36  CAIN.router.ppp[1].ppp  txState:vector  ETV
attr interpolationmode  sample-hold
attr title  "tx state, vector"
vector 56  CAIN.pgw.ppp[0].queue  queueLength:vector  ETV
attr interpolationmode  sample-hold
attr title  "queue length, vector"
vector 57  CAIN.pgw.ppp[0].ppp  txState:vector  ETV
attr interpolationmode  sample-hold
attr title  "tx state, vector"
vector 67  CAIN.pgw.ppp[1].queue  queueLength:vector  ETV
attr interpolationmode  sample-hold
attr title  "queue length, vector"
vector 68  CAIN.pgw.ppp[1].ppp  txState:vector  ETV
attr interpolationmode  sample-hold
attr title  "tx state, vector"
vector 78  CAIN.pgw.pppInterface.queue  queueLength:vector  ETV
attr interpolationmode  sample-hold
attr title  "queue length, vector"
vector 79  CAIN.pgw.pppInterface.ppp  txState:vector  ETV
attr interpolationmode  sample-hold
attr title  "tx state, vector"
vector 120  CAIN.eNodeB.pppIf.queue  queueLength:vector  ETV
attr interpolationmode  sample-hold
attr title  "queue length, vector"
vector 121  CAIN.eNodeB.pppIf.ppp  txState:vector  ETV
attr interpolationmode  sample-hold
attr title  "tx state, vector"
vector 131  CAIN.eNodeB.x2ppp[0].queue  queueLength:vector  ETV
attr interpolationmode  sample-hold
attr title  "queue length, vector"
vector 132  CAIN.eNodeB.x2ppp[0].ppp  txState:vector  ETV
attr interpolationmode  sample-hold
attr title  "tx state, vector"
vector 178  CAIN.eNodeB1.pppIf.queue  queueLength:vector  ETV
attr interpolationmode  sample-hold
attr title  "queue length, vector"
vector 179  CAIN.eNodeB1.pppIf.ppp  txState:vector  ETV
attr interpolationmode  sample-hold
attr title  "tx state, vector"
vector 189  CAIN.eNodeB1.x2ppp[0].queue  queueLength:vector  ETV
attr interpolationmode  sample-hold
attr title  "queue length, vector"
vector 190  CAIN.eNodeB1.x2ppp[0].ppp  txState:vector  ETV
attr interpolationmode  sample-hold
attr title  "tx state, vector"
vector 231  CAIN.ueD2DTx[0].nic.phy  servingCell:vector  ETV
attr source  servingCell
attr title  "ID of the serving eNodeB for the UE, vector"
attr unit  ""
vector 263  CAIN.ueD2DTx[1].nic.phy  servingCell:vector  ETV
attr source  servingCell
attr title  "ID of the serving eNodeB for the UE, vector"
attr unit  ""
vector 295  CAIN.ueD2DTx[2].nic.phy  servingCell:vector  ETV
attr source  servingCell
attr title  "ID of the serving eNodeB for the UE, vector"
attr unit  ""
vector 327  CAIN.ueD2DTx[3].nic.phy  servingCell:vector  ETV
attr source  servingCell
attr title  "ID of the serving eNodeB for the UE, vector"
attr unit  ""
vector 359  CAIN.ueD2DTx[4].nic.phy  servingCell:vector  ETV
attr source  servingCell
attr title  "ID of the serving eNodeB for the UE, vector"
attr unit  ""
vector 391  CAIN.ueD2DTx[5].nic.phy  servingCell:vector  ETV
attr source  servingCell
attr title  "ID of the serving eNodeB for the UE, vector"
attr unit  ""
vector 423  CAIN.ueD2DTx[6].nic.phy  servingCell:vector  ETV
attr source  servingCell
attr title  "ID of the serving eNodeB for the UE, vector"
attr unit  ""
vector 455  CAIN.ueD2DTx[7].nic.phy  servingCell:vector  ETV
attr source  servingCell
attr title  "ID of the serving eNodeB for the UE, vector"
attr unit  ""
vector 487  CAIN.ueD2DTx[8].nic.phy  servingCell:vector  ETV
attr source  servingCell
attr title  "ID of the serving eNodeB for the UE, vector"
attr unit  ""
vector 519  CAIN.ueD2DTx[9].nic.phy  servingCell:vector  ETV
attr source  servingCell
attr title  "ID of the serving eNodeB for the UE, vector"
attr unit  ""
vector 551  CAIN.ueD2DTx[10].nic.phy  servingCell:vector  ETV
attr source  servingCell
attr title  "ID of the serving eNodeB for the UE, vector"
attr unit  ""
vector 583  CAIN.ueD2DTx[11].nic.phy  servingCell:vector  ETV
attr source  servingCell
attr title  "ID of the serving eNodeB for the UE, vector"
attr unit  ""
vector 615  CAIN.ueD2DTx[12].nic.phy  servingCell:vector  ETV
attr source  servingCell
attr title  "ID of the serving eNodeB for the UE, vector"
attr unit  ""
vector 647  CAIN.ueD2DTx[13].nic.phy  servingCell:vector  ETV
attr source  servingCell
attr title  "ID of the serving eNodeB for the UE, vector"
attr unit  ""
vector 679  CAIN.ueD2DTx[14].nic.phy  servingCell:vector  ETV
attr source  servingCell
attr title  "ID of the serving eNodeB for the UE, vector"
attr unit  ""
vector 711  CAIN.ueD2DTx[15].nic.phy  servingCell:vector  ETV
attr source  servingCell
attr title  "ID of the serving eNodeB for the UE, vector"
attr unit  ""
vector 743  CAIN.ueD2DTx[16].nic.phy  servingCell:vector  ETV
attr source  servingCell
attr title  "ID of the serving eNodeB for the UE, vector"
attr unit  ""
vector 775  CAIN.ueD2DTx[17].nic.phy  servingCell:vector  ETV
attr source  servingCell
attr title  "ID of the serving eNodeB for the UE, vector"
attr unit  ""
vector 807  CAIN.ueD2DTx[18].nic.phy  servingCell:vector  ETV
attr source  servingCell
attr title  "ID of the serving eNodeB for the UE, vector"
attr unit  ""
vector 839  CAIN.ueD2DTx[19].nic.phy  servingCell:vector  ETV
attr source  servingCell
attr title  "ID of the serving eNodeB for the UE, vector"
attr unit  ""
vector 871  CAIN.ueD2DTx[20].nic.phy  servingCell:vector  ETV
attr source  servingCell
attr title  "ID of the serving eNodeB for the UE, vector"
attr unit  ""
vector 903  CAIN.ueD2DTx[21].nic.phy  servingCell:vector  ETV
attr source  servingCell
attr title  "ID of the serving eNodeB for the UE, vector"
attr unit  ""
vector 935  CAIN.ueD2DTx[22].nic.phy  servingCell:vector  ETV
attr source  servingCell
attr title  "ID of the serving eNodeB for the UE, vector"
attr unit  ""
vector 967  CAIN.ueD2DTx[23].nic.phy  servingCell:vector  ETV
attr source  servingCell
attr title  "ID of the serving eNodeB for the UE, vector"
attr unit  ""
vector 999  CAIN.ueD2DTx[24].nic.phy  servingCell:vector  ETV
attr source  servingCell
attr title  "ID of the serving eNodeB for the UE, vector"
attr unit  ""
vector 1023  CAIN.eNodeB.sctp  "Throughput of Association 3"  ETV
vector 1045  CAIN.eNodeB1.sctp  "Throughput of Association 4"  ETV
vector 1067  CAIN.eNodeB.sctp  "Throughput of Association 1"  ETV
vector 1087  CAIN.eNodeB.sctp  "Fast Recovery State 1:10.0.5.2"  ETV
vector 1116  CAIN.eNodeB1.sctp  "Throughput of Association 2"  ETV
vector 1136  CAIN.eNodeB1.sctp  "Fast Recovery State 2:10.0.5.1"  ETV
vector 128  CAIN.eNodeB.x2ppp[0].queue  rcvdPk:vector(packetBytes)  ETV
attr interpolationmode  none
attr title  "received packets, vector(packetBytes)"
vector 130  CAIN.eNodeB.x2ppp[0].queue  queueingTime:vector  ETV
attr interpolationmode  none
attr title  "queueing time, vector"
vector 186  CAIN.eNodeB1.x2ppp[0].queue  rcvdPk:vector(packetBytes)  ETV
attr interpolationmode  none
attr title  "received packets, vector(packetBytes)"
vector 188  CAIN.eNodeB1.x2ppp[0].queue  queueingTime:vector  ETV
attr interpolationmode  none
attr title  "queueing time, vector"
vector 137  CAIN.eNodeB.x2ppp[0].ppp  rcvdPkFromHL:vector(packetBytes)  ETV
attr interpolationmode  none
attr source  packetReceivedFromUpper
attr title  "packets received from higher layer, vector(packetBytes)"
vector 133  CAIN.eNodeB.x2ppp[0].ppp  txPk:vector(packetBytes)  ETV
attr interpolationmode  none
attr source  packetSentToLower
attr title  "packets transmitted, vector(packetBytes)"
vector 195  CAIN.eNodeB1.x2ppp[0].ppp  rcvdPkFromHL:vector(packetBytes)  ETV
attr interpolationmode  none
attr source  packetReceivedFromUpper
attr title  "packets received from higher layer, vector(packetBytes)"
vector 191  CAIN.eNodeB1.x2ppp[0].ppp  txPk:vector(packetBytes)  ETV
attr interpolationmode  none
attr source  packetSentToLower
attr title  "packets transmitted, vector(packetBytes)"
vector 192  CAIN.eNodeB1.x2ppp[0].ppp  rxPkOk:vector(packetBytes)  ETV
attr interpolationmode  none
attr source  rxPkOk
attr title  "packets received OK, vector(packetBytes)"
vector 196  CAIN.eNodeB1.x2ppp[0].ppp  passedUpPk:vector(packetBytes)  ETV
attr interpolationmode  none
attr source  packetSentToUpper
attr title  "packets passed to higher layer, vector(packetBytes)"
vector 134  CAIN.eNodeB.x2ppp[0].ppp  rxPkOk:vector(packetBytes)  ETV
attr interpolationmode  none
attr source  rxPkOk
attr title  "packets received OK, vector(packetBytes)"
vector 138  CAIN.eNodeB.x2ppp[0].ppp  passedUpPk:vector(packetBytes)  ETV
attr interpolationmode  none
attr source  packetSentToUpper
attr title  "packets passed to higher layer, vector(packetBytes)"
vector 1165  CAIN.eNodeB1.sctp  "Throughput of Association 4"  ETV
vector 1042  CAIN.eNodeB1.sctp  "Peer Rwnd 4"  ETV
vector 1185  CAIN.eNodeB1.sctp  "Fast Recovery State 5:10.0.4.1"  ETV
vector 1212  CAIN.eNodeB1.sctp  "Fast Recovery State 5:10.0.2.2"  ETV
vector 1239  CAIN.eNodeB1.sctp  "Fast Recovery State 5:10.0.5.1"  ETV
vector 1268  CAIN.eNodeB.sctp  "Throughput of Association 3"  ETV
vector 1020  CAIN.eNodeB.sctp  "Peer Rwnd 3"  ETV
vector 1288  CAIN.eNodeB.sctp  "Fast Recovery State 6:10.0.4.2"  ETV
vector 1315  CAIN.eNodeB.sctp  "Fast Recovery State 6:10.0.3.2"  ETV
vector 1342  CAIN.eNodeB.sctp  "Fast Recovery State 6:10.0.5.2"  ETV
vector 1064  CAIN.eNodeB.sctp  "Peer Rwnd 1"  ETV
vector 1369  CAIN.eNodeB.sctp  "Fast Recovery State 1:10.0.4.2"  ETV
vector 1396  CAIN.eNodeB.sctp  "Fast Recovery State 1:10.0.3.2"  ETV
vector 1113  CAIN.eNodeB1.sctp  "Peer Rwnd 2"  ETV
vector 1423  CAIN.eNodeB1.sctp  "Fast Recovery State 2:10.0.4.1"  ETV
vector 1450  CAIN.eNodeB1.sctp  "Fast Recovery State 2:10.0.2.2"  ETV
vector 1195  CAIN.eNodeB1.sctp  "Slow Start Threshold 5:10.0.2.2"  ETV
vector 1196  CAIN.eNodeB1.sctp  "Congestion Window 5:10.0.2.2"  ETV
vector 1197  CAIN.eNodeB1.sctp  "Bandwidth 5:10.0.2.2"  ETV
vector 1200  CAIN.eNodeB1.sctp  "HB Sent 5:10.0.2.2"  ETV
vector 1193  CAIN.eNodeB1.sctp  "RTO 5:10.0.2.2"  ETV
vector 1168  CAIN.eNodeB1.sctp  "Slow Start Threshold 5:10.0.4.1"  ETV
vector 1169  CAIN.eNodeB1.sctp  "Congestion Window 5:10.0.4.1"  ETV
vector 1170  CAIN.eNodeB1.sctp  "Bandwidth 5:10.0.4.1"  ETV
vector 1173  CAIN.eNodeB1.sctp  "HB Sent 5:10.0.4.1"  ETV
vector 1166  CAIN.eNodeB1.sctp  "RTO 5:10.0.4.1"  ETV
vector 1222  CAIN.eNodeB1.sctp  "Slow Start Threshold 5:10.0.5.1"  ETV
vector 1223  CAIN.eNodeB1.sctp  "Congestion Window 5:10.0.5.1"  ETV
vector 1224  CAIN.eNodeB1.sctp  "Bandwidth 5:10.0.5.1"  ETV
vector 1220  CAIN.eNodeB1.sctp  "RTO 5:10.0.5.1"  ETV
vector 1298  CAIN.eNodeB.sctp  "Slow Start Threshold 6:10.0.3.2"  ETV
vector 1299  CAIN.eNodeB.sctp  "Congestion Window 6:10.0.3.2"  ETV
vector 1300  CAIN.eNodeB.sctp  "Bandwidth 6:10.0.3.2"  ETV
vector 1303  CAIN.eNodeB.sctp  "HB Sent 6:10.0.3.2"  ETV
vector 1296  CAIN.eNodeB.sctp  "RTO 6:10.0.3.2"  ETV
vector 1271  CAIN.eNodeB.sctp  "Slow Start Threshold 6:10.0.4.2"  ETV
vector 1272  CAIN.eNodeB.sctp  "Congestion Window 6:10.0.4.2"  ETV
vector 1273  CAIN.eNodeB.sctp  "Bandwidth 6:10.0.4.2"  ETV
vector 1276  CAIN.eNodeB.sctp  "HB Sent 6:10.0.4.2"  ETV
vector 1269  CAIN.eNodeB.sctp  "RTO 6:10.0.4.2"  ETV
vector 1325  CAIN.eNodeB.sctp  "Slow Start Threshold 6:10.0.5.2"  ETV
vector 1326  CAIN.eNodeB.sctp  "Congestion Window 6:10.0.5.2"  ETV
vector 1327  CAIN.eNodeB.sctp  "Bandwidth 6:10.0.5.2"  ETV
vector 1323  CAIN.eNodeB.sctp  "RTO 6:10.0.5.2"  ETV
vector 1076  CAIN.eNodeB.sctp  "HB ACK Sent 1:10.0.5.2"  ETV
vector 1077  CAIN.eNodeB.sctp  "HB Received 1:10.0.5.2"  ETV
vector 1125  CAIN.eNodeB1.sctp  "HB ACK Sent 2:10.0.5.1"  ETV
vector 1126  CAIN.eNodeB1.sctp  "HB Received 2:10.0.5.1"  ETV
vector 1379  CAIN.eNodeB.sctp  "Slow Start Threshold 1:10.0.3.2"  ETV
vector 1380  CAIN.eNodeB.sctp  "Congestion Window 1:10.0.3.2"  ETV
vector 1381  CAIN.eNodeB.sctp  "Bandwidth 1:10.0.3.2"  ETV
vector 1384  CAIN.eNodeB.sctp  "HB Sent 1:10.0.3.2"  ETV
vector 1377  CAIN.eNodeB.sctp  "RTO 1:10.0.3.2"  ETV
vector 1352  CAIN.eNodeB.sctp  "Slow Start Threshold 1:10.0.4.2"  ETV
vector 1353  CAIN.eNodeB.sctp  "Congestion Window 1:10.0.4.2"  ETV
vector 1354  CAIN.eNodeB.sctp  "Bandwidth 1:10.0.4.2"  ETV
vector 1357  CAIN.eNodeB.sctp  "HB Sent 1:10.0.4.2"  ETV
vector 1350  CAIN.eNodeB.sctp  "RTO 1:10.0.4.2"  ETV
vector 1070  CAIN.eNodeB.sctp  "Slow Start Threshold 1:10.0.5.2"  ETV
vector 1071  CAIN.eNodeB.sctp  "Congestion Window 1:10.0.5.2"  ETV
vector 1072  CAIN.eNodeB.sctp  "Bandwidth 1:10.0.5.2"  ETV
vector 1068  CAIN.eNodeB.sctp  "RTO 1:10.0.5.2"  ETV
vector 1433  CAIN.eNodeB1.sctp  "Slow Start Threshold 2:10.0.2.2"  ETV
vector 1434  CAIN.eNodeB1.sctp  "Congestion Window 2:10.0.2.2"  ETV
vector 1435  CAIN.eNodeB1.sctp  "Bandwidth 2:10.0.2.2"  ETV
vector 1438  CAIN.eNodeB1.sctp  "HB Sent 2:10.0.2.2"  ETV
vector 1431  CAIN.eNodeB1.sctp  "RTO 2:10.0.2.2"  ETV
vector 1406  CAIN.eNodeB1.sctp  "Slow Start Threshold 2:10.0.4.1"  ETV
vector 1407  CAIN.eNodeB1.sctp  "Congestion Window 2:10.0.4.1"  ETV
vector 1408  CAIN.eNodeB1.sctp  "Bandwidth 2:10.0.4.1"  ETV
vector 1411  CAIN.eNodeB1.sctp  "HB Sent 2:10.0.4.1"  ETV
vector 1404  CAIN.eNodeB1.sctp  "RTO 2:10.0.4.1"  ETV
vector 1119  CAIN.eNodeB1.sctp  "Slow Start Threshold 2:10.0.5.1"  ETV
vector 1120  CAIN.eNodeB1.sctp  "Congestion Window 2:10.0.5.1"  ETV
vector 1121  CAIN.eNodeB1.sctp  "Bandwidth 2:10.0.5.1"  ETV
vector 1117  CAIN.eNodeB1.sctp  "RTO 2:10.0.5.1"  ETV
vector 1333  CAIN.eNodeB.sctp  "HB ACK Received 6:10.0.5.2"  ETV
vector 1324  CAIN.eNodeB.sctp  "RTT 6:10.0.5.2"  ETV
vector 1230  CAIN.eNodeB1.sctp  "HB ACK Received 5:10.0.5.1"  ETV
vector 1221  CAIN.eNodeB1.sctp  "RTT 5:10.0.5.1"  ETV
vector 1331  CAIN.eNodeB.sctp  "HB ACK Sent 6:10.0.5.2"  ETV
vector 1332  CAIN.eNodeB.sctp  "HB Received 6:10.0.5.2"  ETV
vector 1228  CAIN.eNodeB1.sctp  "HB ACK Sent 5:10.0.5.1"  ETV
vector 1229  CAIN.eNodeB1.sctp  "HB Received 5:10.0.5.1"  ETV
vector 1127  CAIN.eNodeB1.sctp  "HB ACK Received 2:10.0.5.1"  ETV
vector 1118  CAIN.eNodeB1.sctp  "RTT 2:10.0.5.1"  ETV
vector 1078  CAIN.eNodeB.sctp  "HB ACK Received 1:10.0.5.2"  ETV
vector 1069  CAIN.eNodeB.sctp  "RTT 1:10.0.5.2"  ETV
vector 96  CAIN.eNodeB.nic.mac  receivedPacketFromLowerLayer:vector(packetBytes)  ETV
attr interpolationmode  none
attr source  receivedPacketFromLowerLayer
vector 1465  CAIN.eNodeB.sctp  "SendQueue of Association 6"  ETV
vector 1328  CAIN.eNodeB.sctp  "TSN Sent 6:10.0.5.2"  ETV
vector 1335  CAIN.eNodeB.sctp  "Outstanding Bytes 6:10.0.5.2"  ETV
vector 1008  CAIN.eNodeB.sctp  "Outstanding Bytes 3:Total"  ETV
vector 1334  CAIN.eNodeB.sctp  "Queued Sent Bytes 6:10.0.5.2"  ETV
vector 1007  CAIN.eNodeB.sctp  "Queued Sent Bytes 3:Total"  ETV
vector 1123  CAIN.eNodeB1.sctp  "TSN Received 2:10.0.5.1"  ETV
vector 1099  CAIN.eNodeB1.sctp  "Queued Received Bytes 2:Total"  ETV
vector 1095  CAIN.eNodeB1.sctp  "Advertised Receiver Window 2"  ETV
vector 1104  CAIN.eNodeB1.sctp  "Number of Total Gap Blocks Stored 2"  ETV
vector 1105  CAIN.eNodeB1.sctp  "Number of Revokable Gap Blocks Stored 2"  ETV
vector 1106  CAIN.eNodeB1.sctp  "Number of Non-Revokable Gap Blocks Stored 2"  ETV
vector 1107  CAIN.eNodeB1.sctp  "Number of Duplicate TSNs Stored 2"  ETV
vector 1111  CAIN.eNodeB1.sctp  "Length of SACK Sent 2"  ETV
vector 1108  CAIN.eNodeB1.sctp  "Number of Revokable Gap Blocks Sent 2"  ETV
vector 1109  CAIN.eNodeB1.sctp  "Number of Non-Revokable Gap Blocks Sent 2"  ETV
vector 1110  CAIN.eNodeB1.sctp  "Number of Duplicate TSNs Sent 2"  ETV
vector 1115  CAIN.eNodeB1.sctp  "End to End Delay of Association 2"  ETV
vector 199  CAIN.eNodeB1.x2App[0].client  rcvdPk:vector(packetBytes)  ETV
attr interpolationmode  none
attr source  rcvdPk
attr title  "packets received, vector(packetBytes)"
vector 1464  CAIN.eNodeB.sctp  "Number of Gap Blocks in Last SACK of Association 6"  ETV
vector 1009  CAIN.eNodeB.sctp  "Number of Revokable Gap Blocks in SACK 3"  ETV
vector 1010  CAIN.eNodeB.sctp  "Number of Non-Revokable Gap Blocks in SACK 3"  ETV
vector 1345  CAIN.eNodeB.sctp  "TSN Acked CumAck 6:10.0.5.2"  ETV
vector 1311  CAIN.eNodeB.sctp  "Number of Gap Acked Chunks in Last SACK 6:10.0.3.2"  ETV
vector 1312  CAIN.eNodeB.sctp  "Number of Non-Revokable Gap Acked Chunks in Last SACK 6:10.0.3.2"  ETV
vector 1313  CAIN.eNodeB.sctp  "Number of Gap Missed Chunks in Last SACK 6:10.0.3.2"  ETV
vector 1284  CAIN.eNodeB.sctp  "Number of Gap Acked Chunks in Last SACK 6:10.0.4.2"  ETV
vector 1285  CAIN.eNodeB.sctp  "Number of Non-Revokable Gap Acked Chunks in Last SACK 6:10.0.4.2"  ETV
vector 1286  CAIN.eNodeB.sctp  "Number of Gap Missed Chunks in Last SACK 6:10.0.4.2"  ETV
vector 1338  CAIN.eNodeB.sctp  "Number of Gap Acked Chunks in Last SACK 6:10.0.5.2"  ETV
vector 1339  CAIN.eNodeB.sctp  "Number of Non-Revokable Gap Acked Chunks in Last SACK 6:10.0.5.2"  ETV
vector 1340  CAIN.eNodeB.sctp  "Number of Gap Missed Chunks in Last SACK 6:10.0.5.2"  ETV
vector 1019  CAIN.eNodeB.sctp  "Arwnd in Last SACK 3"  ETV
vector 1347  CAIN.eNodeB.sctp  "TSN PseudoCumAck 6:10.0.5.2"  ETV
vector 1348  CAIN.eNodeB.sctp  "TSN RTXPseudoCumAck 6:10.0.5.2"  ETV
vector 1341  CAIN.eNodeB.sctp  "Partial Bytes Acked 6:10.0.5.2"  ETV
vector 1493  CAIN.ueD2DTx[13].tcp  tcpRcvQueueBytes  ETV
vector 1480  CAIN.ueD2DTx[13].tcp  "advertised window"  ETV
vector 1479  CAIN.ueD2DTx[13].tcp  "receive window"  ETV
vector 1482  CAIN.ueD2DTx[13].tcp  "sent ack"  ETV
vector 621  CAIN.ueD2DTx[13].nic.pdcpRrc  receivedPacketFromUpperLayer:vector(packetBytes)  ETV
attr interpolationmode  none
attr source  receivedPacketFromUpperLayer
vector 624  CAIN.ueD2DTx[13].nic.pdcpRrc  sentPacketToLowerLayer:vector(packetBytes)  ETV
attr interpolationmode  none
attr source  sentPacketToLowerLayer
vector 625  CAIN.ueD2DTx[13].nic.mac  receivedPacketFromUpperLayer:vector(packetBytes)  ETV
attr interpolationmode  none
attr source  receivedPacketFromUpperLayer
vector 628  CAIN.ueD2DTx[13].nic.mac  sentPacketToLowerLayer:vector(packetBytes)  ETV
attr interpolationmode  none
attr source  sentPacketToLowerLayer
vector 1517  CAIN.ueD2DTx[19].tcp  tcpRcvQueueBytes  ETV
vector 1504  CAIN.ueD2DTx[19].tcp  "advertised window"  ETV
vector 1503  CAIN.ueD2DTx[19].tcp  "receive window"  ETV
vector 1506  CAIN.ueD2DTx[19].tcp  "sent ack"  ETV
vector 813  CAIN.ueD2DTx[19].nic.pdcpRrc  receivedPacketFromUpperLayer:vector(packetBytes)  ETV
attr interpolationmode  none
attr source  receivedPacketFromUpperLayer
vector 816  CAIN.ueD2DTx[19].nic.pdcpRrc  sentPacketToLowerLayer:vector(packetBytes)  ETV
attr interpolationmode  none
attr source  sentPacketToLowerLayer
vector 817  CAIN.ueD2DTx[19].nic.mac  receivedPacketFromUpperLayer:vector(packetBytes)  ETV
attr interpolationmode  none
attr source  receivedPacketFromUpperLayer
vector 1541  CAIN.ueD2DTx[12].tcp  tcpRcvQueueBytes  ETV
vector 1528  CAIN.ueD2DTx[12].tcp  "advertised window"  ETV
vector 1527  CAIN.ueD2DTx[12].tcp  "receive window"  ETV
vector 1530  CAIN.ueD2DTx[12].tcp  "sent ack"  ETV
vector 589  CAIN.ueD2DTx[12].nic.pdcpRrc  receivedPacketFromUpperLayer:vector(packetBytes)  ETV
attr interpolationmode  none
attr source  receivedPacketFromUpperLayer
vector 592  CAIN.ueD2DTx[12].nic.pdcpRrc  sentPacketToLowerLayer:vector(packetBytes)  ETV
attr interpolationmode  none
attr source  sentPacketToLowerLayer
vector 593  CAIN.ueD2DTx[12].nic.mac  receivedPacketFromUpperLayer:vector(packetBytes)  ETV
attr interpolationmode  none
attr source  receivedPacketFromUpperLayer
vector 602  CAIN.ueD2DTx[12].nic.mac  CainMessageSent:vector  ETV
attr interpolationmode  none
attr title  "# of Sent CAIN message, vector"
vector 596  CAIN.ueD2DTx[12].nic.mac  sentPacketToLowerLayer:vector(packetBytes)  ETV
attr interpolationmode  none
attr source  sentPacketToLowerLayer
vector 827  CAIN.ueD2DTx[19].nic.mac  CainHopMessageSent:vector  ETV
attr interpolationmode  none
attr title  "# of Sent CAIN hop message, vector"
vector 820  CAIN.ueD2DTx[19].nic.mac  sentPacketToLowerLayer:vector(packetBytes)  ETV
attr interpolationmode  none
attr source  sentPacketToLowerLayer
vector 111  CAIN.eNodeB.nic.mac  racpkt:vector  ETV
attr interpolationmode  none
attr title  "eNB received racpkt message, vector"
vector 112  CAIN.eNodeB.nic.mac  racDistanceSignal:vector  ETV
attr interpolationmode  none
attr title  "Rac distance to enb, vector"
vector 113  CAIN.eNodeB.nic.mac  racServedDevsSignal:vector  ETV
attr interpolationmode  none
attr title  "# of devices served on rac arriavall, vector"
vector 98  CAIN.eNodeB.nic.mac  sentPacketToLowerLayer:vector(packetBytes)  ETV
attr interpolationmode  none
attr source  sentPacketToLowerLayer
vector 786  CAIN.ueD2DTx[18].nic.mac  receivedPacketFromLowerLayer:vector(packetBytes)  ETV
attr interpolationmode  none
attr source  receivedPacketFromLowerLayer
vector 788  CAIN.ueD2DTx[18].nic.mac  sentPacketToLowerLayer:vector(packetBytes)  ETV
attr interpolationmode  none
attr source  sentPacketToLowerLayer
vector 434  CAIN.ueD2DTx[7].nic.mac  receivedPacketFromLowerLayer:vector(packetBytes)  ETV
attr interpolationmode  none
attr source  receivedPacketFromLowerLayer
vector 436  CAIN.ueD2DTx[7].nic.mac  sentPacketToLowerLayer:vector(packetBytes)  ETV
attr interpolationmode  none
attr source  sentPacketToLowerLayer
vector 626  CAIN.ueD2DTx[13].nic.mac  receivedPacketFromLowerLayer:vector(packetBytes)  ETV
attr interpolationmode  none
attr source  receivedPacketFromLowerLayer
vector 106  CAIN.eNodeB.nic.mac  DistanceSignal:vector  ETV
attr interpolationmode  none
attr title  "Distance to enb, vector"
vector 100  CAIN.eNodeB.nic.mac  CainMessage:vector  ETV
attr interpolationmode  none
attr title  "eNB received CAIN message, vector"
vector 627  CAIN.ueD2DTx[13].nic.mac  sentPacketToUpperLayer:vector(packetBytes)  ETV
attr interpolationmode  none
attr source  sentPacketToUpperLayer
vector 792  CAIN.ueD2DTx[18].nic.mac  DropedCainMessage:vector  ETV
attr interpolationmode  none
attr title  "Droped CAIN message due to RB not available, vector"
vector 101  CAIN.eNodeB.nic.mac  CainHopMessage:vector  ETV
attr interpolationmode  none
attr title  "eNB received CAIN hop message, vector"
vector 115  CAIN.eNodeB.nic.phy  averageCqiUlvect:vector  ETV
attr source  averageCqiUlvect
attr title  "Average Cqi reported in UL, vector"
attr unit  cqi
vector 793  CAIN.ueD2DTx[18].nic.mac  DropedHopMessage:vector  ETV
attr interpolationmode  none
attr title  "Droped Hop CAIN message due to RB not available, vector"
vector 97  CAIN.eNodeB.nic.mac  sentPacketToUpperLayer:vector(packetBytes)  ETV
attr interpolationmode  none
attr source  sentPacketToUpperLayer
vector 99  CAIN.eNodeB.nic.mac  measuredItbs:vector  ETV
attr source  measuredItbs
attr title  "TBS index, vector"
attr unit  ""
vector 1565  CAIN.ueD2DTx[11].tcp  tcpRcvQueueBytes  ETV
vector 1552  CAIN.ueD2DTx[11].tcp  "advertised window"  ETV
vector 1551  CAIN.ueD2DTx[11].tcp  "receive window"  ETV
vector 1554  CAIN.ueD2DTx[11].tcp  "sent ack"  ETV
vector 557  CAIN.ueD2DTx[11].nic.pdcpRrc  receivedPacketFromUpperLayer:vector(packetBytes)  ETV
attr interpolationmode  none
attr source  receivedPacketFromUpperLayer
vector 560  CAIN.ueD2DTx[11].nic.pdcpRrc  sentPacketToLowerLayer:vector(packetBytes)  ETV
attr interpolationmode  none
attr source  sentPacketToLowerLayer
vector 561  CAIN.ueD2DTx[11].nic.mac  receivedPacketFromUpperLayer:vector(packetBytes)  ETV
attr interpolationmode  none
attr source  receivedPacketFromUpperLayer
vector 571  CAIN.ueD2DTx[11].nic.mac  CainHopMessageSent:vector  ETV
attr interpolationmode  none
attr title  "# of Sent CAIN hop message, vector"
vector 564  CAIN.ueD2DTx[11].nic.mac  sentPacketToLowerLayer:vector(packetBytes)  ETV
attr interpolationmode  none
attr source  sentPacketToLowerLayer
vector 978  CAIN.ueD2DTx[24].nic.mac  receivedPacketFromLowerLayer:vector(packetBytes)  ETV
attr interpolationmode  none
attr source  receivedPacketFromLowerLayer
vector 980  CAIN.ueD2DTx[24].nic.mac  sentPacketToLowerLayer:vector(packetBytes)  ETV
attr interpolationmode  none
attr source  sentPacketToLowerLayer
vector 722  CAIN.ueD2DTx[16].nic.mac  receivedPacketFromLowerLayer:vector(packetBytes)  ETV
attr interpolationmode  none
attr source  receivedPacketFromLowerLayer
vector 724  CAIN.ueD2DTx[16].nic.mac  sentPacketToLowerLayer:vector(packetBytes)  ETV
attr interpolationmode  none
attr source  sentPacketToLowerLayer
vector 1589  CAIN.ueD2DTx[7].tcp  tcpRcvQueueBytes  ETV
vector 1576  CAIN.ueD2DTx[7].tcp  "advertised window"  ETV
vector 1575  CAIN.ueD2DTx[7].tcp  "receive window"  ETV
vector 1578  CAIN.ueD2DTx[7].tcp  "sent ack"  ETV
vector 429  CAIN.ueD2DTx[7].nic.pdcpRrc  receivedPacketFromUpperLayer:vector(packetBytes)  ETV
attr interpolationmode  none
attr source  receivedPacketFromUpperLayer
vector 432  CAIN.ueD2DTx[7].nic.pdcpRrc  sentPacketToLowerLayer:vector(packetBytes)  ETV
attr interpolationmode  none
attr source  sentPacketToLowerLayer
vector 433  CAIN.ueD2DTx[7].nic.mac  receivedPacketFromUpperLayer:vector(packetBytes)  ETV
attr interpolationmode  none
attr source  receivedPacketFromUpperLayer
vector 442  CAIN.ueD2DTx[7].nic.mac  CainMessageSent:vector  ETV
attr interpolationmode  none
attr title  "# of Sent CAIN message, vector"
vector 1613  CAIN.ueD2DTx[6].tcp  tcpRcvQueueBytes  ETV
vector 1600  CAIN.ueD2DTx[6].tcp  "advertised window"  ETV
vector 1599  CAIN.ueD2DTx[6].tcp  "receive window"  ETV
vector 1602  CAIN.ueD2DTx[6].tcp  "sent ack"  ETV
vector 397  CAIN.ueD2DTx[6].nic.pdcpRrc  receivedPacketFromUpperLayer:vector(packetBytes)  ETV
attr interpolationmode  none
attr source  receivedPacketFromUpperLayer
vector 400  CAIN.ueD2DTx[6].nic.pdcpRrc  sentPacketToLowerLayer:vector(packetBytes)  ETV
attr interpolationmode  none
attr source  sentPacketToLowerLayer
vector 401  CAIN.ueD2DTx[6].nic.mac  receivedPacketFromUpperLayer:vector(packetBytes)  ETV
attr interpolationmode  none
attr source  receivedPacketFromUpperLayer
vector 92  CAIN.eNodeB.nic.pdcpRrc  receivedPacketFromLowerLayer:vector(packetBytes)  ETV
attr interpolationmode  none
attr source  receivedPacketFromLowerLayer
vector 93  CAIN.eNodeB.nic.pdcpRrc  sentPacketToUpperLayer:vector(packetBytes)  ETV
attr interpolationmode  none
attr source  sentPacketToUpperLayer
vector 91  CAIN.eNodeB.nic.pdcpRrc  receivedPacketFromUpperLayer:vector(packetBytes)  ETV
attr interpolationmode  none
attr source  receivedPacketFromUpperLayer
vector 94  CAIN.eNodeB.nic.pdcpRrc  sentPacketToLowerLayer:vector(packetBytes)  ETV
attr interpolationmode  none
attr source  sentPacketToLowerLayer
vector 95  CAIN.eNodeB.nic.mac  receivedPacketFromUpperLayer:vector(packetBytes)  ETV
attr interpolationmode  none
attr source  receivedPacketFromUpperLayer
vector 411  CAIN.ueD2DTx[6].nic.mac  CainHopMessageSent:vector  ETV
attr interpolationmode  none
attr title  "# of Sent CAIN hop message, vector"
vector 404  CAIN.ueD2DTx[6].nic.mac  sentPacketToLowerLayer:vector(packetBytes)  ETV
attr interpolationmode  none
attr source  sentPacketToLowerLayer
vector 729  CAIN.ueD2DTx[16].nic.mac  DropedHopMessage:vector  ETV
attr interpolationmode  none
attr title  "Droped Hop CAIN message due to RB not available, vector"
vector 1637  CAIN.ueD2DTx[20].tcp  tcpRcvQueueBytes  ETV
vector 1624  CAIN.ueD2DTx[20].tcp  "advertised window"  ETV
vector 1623  CAIN.ueD2DTx[20].tcp  "receive window"  ETV
vector 1626  CAIN.ueD2DTx[20].tcp  "sent ack"  ETV
vector 845  CAIN.ueD2DTx[20].nic.pdcpRrc  receivedPacketFromUpperLayer:vector(packetBytes)  ETV
attr interpolationmode  none
attr source  receivedPacketFromUpperLayer
vector 848  CAIN.ueD2DTx[20].nic.pdcpRrc  sentPacketToLowerLayer:vector(packetBytes)  ETV
attr interpolationmode  none
attr source  sentPacketToLowerLayer
vector 849  CAIN.ueD2DTx[20].nic.mac  receivedPacketFromUpperLayer:vector(packetBytes)  ETV
attr interpolationmode  none
attr source  receivedPacketFromUpperLayer
vector 859  CAIN.ueD2DTx[20].nic.mac  CainHopMessageSent:vector  ETV
attr interpolationmode  none
attr title  "# of Sent CAIN hop message, vector"
vector 852  CAIN.ueD2DTx[20].nic.mac  sentPacketToLowerLayer:vector(packetBytes)  ETV
attr interpolationmode  none
attr source  sentPacketToLowerLayer
vector 228  CAIN.ueD2DTx[0].nic.phy  averageCqiDlvect:vector  ETV
attr source  averageCqiDlvect
attr title  "Average Cqi reported in DL, vector"
attr unit  cqi
vector 210  CAIN.ueD2DTx[0].nic.mac  receivedPacketFromLowerLayer:vector(packetBytes)  ETV
attr interpolationmode  none
attr source  receivedPacketFromLowerLayer
vector 212  CAIN.ueD2DTx[0].nic.mac  sentPacketToLowerLayer:vector(packetBytes)  ETV
attr interpolationmode  none
attr source  sentPacketToLowerLayer
vector 211  CAIN.ueD2DTx[0].nic.mac  sentPacketToUpperLayer:vector(packetBytes)  ETV
attr interpolationmode  none
attr source  sentPacketToUpperLayer
vector 206  CAIN.ueD2DTx[0].nic.pdcpRrc  receivedPacketFromLowerLayer:vector(packetBytes)  ETV
attr interpolationmode  none
attr source  receivedPacketFromLowerLayer
vector 207  CAIN.ueD2DTx[0].nic.pdcpRrc  sentPacketToUpperLayer:vector(packetBytes)  ETV
attr interpolationmode  none
attr source  sentPacketToUpperLayer
vector 1661  CAIN.ueD2DTx[2].tcp  tcpRcvQueueBytes  ETV
vector 1648  CAIN.ueD2DTx[2].tcp  "advertised window"  ETV
vector 1647  CAIN.ueD2DTx[2].tcp  "receive window"  ETV
vector 1650  CAIN.ueD2DTx[2].tcp  "sent ack"  ETV
vector 269  CAIN.ueD2DTx[2].nic.pdcpRrc  receivedPacketFromUpperLayer:vector(packetBytes)  ETV
attr interpolationmode  none
attr source  receivedPacketFromUpperLayer
vector 272  CAIN.ueD2DTx[2].nic.pdcpRrc  sentPacketToLowerLayer:vector(packetBytes)  ETV
attr interpolationmode  none
attr source  sentPacketToLowerLayer
vector 273  CAIN.ueD2DTx[2].nic.mac  receivedPacketFromUpperLayer:vector(packetBytes)  ETV
attr interpolationmode  none
attr source  receivedPacketFromUpperLayer
vector 276  CAIN.ueD2DTx[2].nic.mac  sentPacketToLowerLayer:vector(packetBytes)  ETV
attr interpolationmode  none
attr source  sentPacketToLowerLayer
vector 1685  CAIN.ueD2DTx[10].tcp  tcpRcvQueueBytes  ETV
vector 1672  CAIN.ueD2DTx[10].tcp  "advertised window"  ETV
vector 1671  CAIN.ueD2DTx[10].tcp  "receive window"  ETV
vector 1674  CAIN.ueD2DTx[10].tcp  "sent ack"  ETV
vector 525  CAIN.ueD2DTx[10].nic.pdcpRrc  receivedPacketFromUpperLayer:vector(packetBytes)  ETV
attr interpolationmode  none
attr source  receivedPacketFromUpperLayer
vector 528  CAIN.ueD2DTx[10].nic.pdcpRrc  sentPacketToLowerLayer:vector(packetBytes)  ETV
attr interpolationmode  none
attr source  sentPacketToLowerLayer
vector 529  CAIN.ueD2DTx[10].nic.mac  receivedPacketFromUpperLayer:vector(packetBytes)  ETV
attr interpolationmode  none
attr source  receivedPacketFromUpperLayer
vector 1709  CAIN.ueD2DTx[14].tcp  tcpRcvQueueBytes  ETV
vector 1696  CAIN.ueD2DTx[14].tcp  "advertised window"  ETV
vector 1695  CAIN.ueD2DTx[14].tcp  "receive window"  ETV
vector 1698  CAIN.ueD2DTx[14].tcp  "sent ack"  ETV
vector 653  CAIN.ueD2DTx[14].nic.pdcpRrc  receivedPacketFromUpperLayer:vector(packetBytes)  ETV
attr interpolationmode  none
attr source  receivedPacketFromUpperLayer
vector 656  CAIN.ueD2DTx[14].nic.pdcpRrc  sentPacketToLowerLayer:vector(packetBytes)  ETV
attr interpolationmode  none
attr source  sentPacketToLowerLayer
vector 657  CAIN.ueD2DTx[14].nic.mac  receivedPacketFromUpperLayer:vector(packetBytes)  ETV
attr interpolationmode  none
attr source  receivedPacketFromUpperLayer
vector 538  CAIN.ueD2DTx[10].nic.mac  CainMessageSent:vector  ETV
attr interpolationmode  none
attr title  "# of Sent CAIN message, vector"
vector 532  CAIN.ueD2DTx[10].nic.mac  sentPacketToLowerLayer:vector(packetBytes)  ETV
attr interpolationmode  none
attr source  sentPacketToLowerLayer
vector 667  CAIN.ueD2DTx[14].nic.mac  CainHopMessageSent:vector  ETV
attr interpolationmode  none
attr title  "# of Sent CAIN hop message, vector"
vector 660  CAIN.ueD2DTx[14].nic.mac  sentPacketToLowerLayer:vector(packetBytes)  ETV
attr interpolationmode  none
attr source  sentPacketToLowerLayer
vector 274  CAIN.ueD2DTx[2].nic.mac  receivedPacketFromLowerLayer:vector(packetBytes)  ETV
attr interpolationmode  none
attr source  receivedPacketFromLowerLayer
vector 275  CAIN.ueD2DTx[2].nic.mac  sentPacketToUpperLayer:vector(packetBytes)  ETV
attr interpolationmode  none
attr source  sentPacketToUpperLayer
vector 1733  CAIN.ueD2DTx[4].tcp  tcpRcvQueueBytes  ETV
vector 1720  CAIN.ueD2DTx[4].tcp  "advertised window"  ETV
vector 1719  CAIN.ueD2DTx[4].tcp  "receive window"  ETV
vector 1722  CAIN.ueD2DTx[4].tcp  "sent ack"  ETV
vector 333  CAIN.ueD2DTx[4].nic.pdcpRrc  receivedPacketFromUpperLayer:vector(packetBytes)  ETV
attr interpolationmode  none
attr source  receivedPacketFromUpperLayer
vector 336  CAIN.ueD2DTx[4].nic.pdcpRrc  sentPacketToLowerLayer:vector(packetBytes)  ETV
attr interpolationmode  none
attr source  sentPacketToLowerLayer
vector 337  CAIN.ueD2DTx[4].nic.mac  receivedPacketFromUpperLayer:vector(packetBytes)  ETV
attr interpolationmode  none
attr source  receivedPacketFromUpperLayer
vector 340  CAIN.ueD2DTx[4].nic.mac  sentPacketToLowerLayer:vector(packetBytes)  ETV
attr interpolationmode  none
attr source  sentPacketToLowerLayer
vector 108  CAIN.eNodeB.nic.mac  ServedDevs:vector  ETV
attr interpolationmode  none
attr title  "# of devices served on cain forwarding, vector"
vector 338  CAIN.ueD2DTx[4].nic.mac  receivedPacketFromLowerLayer:vector(packetBytes)  ETV
attr interpolationmode  none
attr source  receivedPacketFromLowerLayer
vector 1757  CAIN.ueD2DTx[21].tcp  tcpRcvQueueBytes  ETV
vector 1744  CAIN.ueD2DTx[21].tcp  "advertised window"  ETV
vector 1743  CAIN.ueD2DTx[21].tcp  "receive window"  ETV
vector 1746  CAIN.ueD2DTx[21].tcp  "sent ack"  ETV
vector 877  CAIN.ueD2DTx[21].nic.pdcpRrc  receivedPacketFromUpperLayer:vector(packetBytes)  ETV
attr interpolationmode  none
attr source  receivedPacketFromUpperLayer
vector 880  CAIN.ueD2DTx[21].nic.pdcpRrc  sentPacketToLowerLayer:vector(packetBytes)  ETV
attr interpolationmode  none
attr source  sentPacketToLowerLayer
vector 881  CAIN.ueD2DTx[21].nic.mac  receivedPacketFromUpperLayer:vector(packetBytes)  ETV
attr interpolationmode  none
attr source  receivedPacketFromUpperLayer
vector 891  CAIN.ueD2DTx[21].nic.mac  CainHopMessageSent:vector  ETV
attr interpolationmode  none
attr title  "# of Sent CAIN hop message, vector"
vector 884  CAIN.ueD2DTx[21].nic.mac  sentPacketToLowerLayer:vector(packetBytes)  ETV
attr interpolationmode  none
attr source  sentPacketToLowerLayer
vector 1781  CAIN.ueD2DTx[24].tcp  tcpRcvQueueBytes  ETV
vector 1768  CAIN.ueD2DTx[24].tcp  "advertised window"  ETV
vector 1767  CAIN.ueD2DTx[24].tcp  "receive window"  ETV
vector 1770  CAIN.ueD2DTx[24].tcp  "sent ack"  ETV
vector 973  CAIN.ueD2DTx[24].nic.pdcpRrc  receivedPacketFromUpperLayer:vector(packetBytes)  ETV
attr interpolationmode  none
attr source  receivedPacketFromUpperLayer
vector 976  CAIN.ueD2DTx[24].nic.pdcpRrc  sentPacketToLowerLayer:vector(packetBytes)  ETV
attr interpolationmode  none
attr source  sentPacketToLowerLayer
vector 977  CAIN.ueD2DTx[24].nic.mac  receivedPacketFromUpperLayer:vector(packetBytes)  ETV
attr interpolationmode  none
attr source  receivedPacketFromUpperLayer
vector 339  CAIN.ueD2DTx[4].nic.mac  sentPacketToUpperLayer:vector(packetBytes)  ETV
attr interpolationmode  none
attr source  sentPacketToUpperLayer
vector 986  CAIN.ueD2DTx[24].nic.mac  CainMessageSent:vector  ETV
attr interpolationmode  none
attr title  "# of Sent CAIN message, vector"
vector 728  CAIN.ueD2DTx[16].nic.mac  DropedCainMessage:vector  ETV
attr interpolationmode  none
attr title  "Droped CAIN message due to RB not available, vector"
vector 1805  CAIN.ueD2DTx[8].tcp  tcpRcvQueueBytes  ETV
vector 1792  CAIN.ueD2DTx[8].tcp  "advertised window"  ETV
vector 1791  CAIN.ueD2DTx[8].tcp  "receive window"  ETV
vector 1794  CAIN.ueD2DTx[8].tcp  "sent ack"  ETV
vector 461  CAIN.ueD2DTx[8].nic.pdcpRrc  receivedPacketFromUpperLayer:vector(packetBytes)  ETV
attr interpolationmode  none
attr source  receivedPacketFromUpperLayer
vector 464  CAIN.ueD2DTx[8].nic.pdcpRrc  sentPacketToLowerLayer:vector(packetBytes)  ETV
attr interpolationmode  none
attr source  sentPacketToLowerLayer
vector 465  CAIN.ueD2DTx[8].nic.mac  receivedPacketFromUpperLayer:vector(packetBytes)  ETV
attr interpolationmode  none
attr source  receivedPacketFromUpperLayer
vector 474  CAIN.ueD2DTx[8].nic.mac  CainMessageSent:vector  ETV
attr interpolationmode  none
attr title  "# of Sent CAIN message, vector"
vector 468  CAIN.ueD2DTx[8].nic.mac  sentPacketToLowerLayer:vector(packetBytes)  ETV
attr interpolationmode  none
attr source  sentPacketToLowerLayer
vector 1829  CAIN.ueD2DTx[9].tcp  tcpRcvQueueBytes  ETV
vector 1816  CAIN.ueD2DTx[9].tcp  "advertised window"  ETV
vector 1815  CAIN.ueD2DTx[9].tcp  "receive window"  ETV
vector 1818  CAIN.ueD2DTx[9].tcp  "sent ack"  ETV
vector 493  CAIN.ueD2DTx[9].nic.pdcpRrc  receivedPacketFromUpperLayer:vector(packetBytes)  ETV
attr interpolationmode  none
attr source  receivedPacketFromUpperLayer
vector 496  CAIN.ueD2DTx[9].nic.pdcpRrc  sentPacketToLowerLayer:vector(packetBytes)  ETV
attr interpolationmode  none
attr source  sentPacketToLowerLayer
vector 497  CAIN.ueD2DTx[9].nic.mac  receivedPacketFromUpperLayer:vector(packetBytes)  ETV
attr interpolationmode  none
attr source  receivedPacketFromUpperLayer
vector 506  CAIN.ueD2DTx[9].nic.mac  CainMessageSent:vector  ETV
attr interpolationmode  none
attr title  "# of Sent CAIN message, vector"
vector 500  CAIN.ueD2DTx[9].nic.mac  sentPacketToLowerLayer:vector(packetBytes)  ETV
attr interpolationmode  none
attr source  sentPacketToLowerLayer
vector 946  CAIN.ueD2DTx[23].nic.mac  receivedPacketFromLowerLayer:vector(packetBytes)  ETV
attr interpolationmode  none
attr source  receivedPacketFromLowerLayer
vector 948  CAIN.ueD2DTx[23].nic.mac  sentPacketToLowerLayer:vector(packetBytes)  ETV
attr interpolationmode  none
attr source  sentPacketToLowerLayer
vector 754  CAIN.ueD2DTx[17].nic.mac  receivedPacketFromLowerLayer:vector(packetBytes)  ETV
attr interpolationmode  none
attr source  receivedPacketFromLowerLayer
vector 756  CAIN.ueD2DTx[17].nic.mac  sentPacketToLowerLayer:vector(packetBytes)  ETV
attr interpolationmode  none
attr source  sentPacketToLowerLayer
vector 952  CAIN.ueD2DTx[23].nic.mac  DropedCainMessage:vector  ETV
attr interpolationmode  none
attr title  "Droped CAIN message due to RB not available, vector"
vector 1853  CAIN.ueD2DTx[15].tcp  tcpRcvQueueBytes  ETV
vector 1840  CAIN.ueD2DTx[15].tcp  "advertised window"  ETV
vector 1839  CAIN.ueD2DTx[15].tcp  "receive window"  ETV
vector 1842  CAIN.ueD2DTx[15].tcp  "sent ack"  ETV
vector 685  CAIN.ueD2DTx[15].nic.pdcpRrc  receivedPacketFromUpperLayer:vector(packetBytes)  ETV
attr interpolationmode  none
attr source  receivedPacketFromUpperLayer
vector 688  CAIN.ueD2DTx[15].nic.pdcpRrc  sentPacketToLowerLayer:vector(packetBytes)  ETV
attr interpolationmode  none
attr source  sentPacketToLowerLayer
vector 689  CAIN.ueD2DTx[15].nic.mac  receivedPacketFromUpperLayer:vector(packetBytes)  ETV
attr interpolationmode  none
attr source  receivedPacketFromUpperLayer
vector 692  CAIN.ueD2DTx[15].nic.mac  sentPacketToLowerLayer:vector(packetBytes)  ETV
attr interpolationmode  none
attr source  sentPacketToLowerLayer
vector 760  CAIN.ueD2DTx[17].nic.mac  DropedCainMessage:vector  ETV
attr interpolationmode  none
attr title  "Droped CAIN message due to RB not available, vector"
vector 1877  CAIN.ueD2DTx[17].tcp  tcpRcvQueueBytes  ETV
vector 1864  CAIN.ueD2DTx[17].tcp  "advertised window"  ETV
vector 1863  CAIN.ueD2DTx[17].tcp  "receive window"  ETV
vector 1866  CAIN.ueD2DTx[17].tcp  "sent ack"  ETV
vector 749  CAIN.ueD2DTx[17].nic.pdcpRrc  receivedPacketFromUpperLayer:vector(packetBytes)  ETV
attr interpolationmode  none
attr source  receivedPacketFromUpperLayer
vector 752  CAIN.ueD2DTx[17].nic.pdcpRrc  sentPacketToLowerLayer:vector(packetBytes)  ETV
attr interpolationmode  none
attr source  sentPacketToLowerLayer
vector 753  CAIN.ueD2DTx[17].nic.mac  receivedPacketFromUpperLayer:vector(packetBytes)  ETV
attr interpolationmode  none
attr source  receivedPacketFromUpperLayer
vector 1901  CAIN.ueD2DTx[0].tcp  tcpRcvQueueBytes  ETV
vector 1888  CAIN.ueD2DTx[0].tcp  "advertised window"  ETV
vector 1887  CAIN.ueD2DTx[0].tcp  "receive window"  ETV
vector 1890  CAIN.ueD2DTx[0].tcp  "sent ack"  ETV
vector 205  CAIN.ueD2DTx[0].nic.pdcpRrc  receivedPacketFromUpperLayer:vector(packetBytes)  ETV
attr interpolationmode  none
attr source  receivedPacketFromUpperLayer
vector 208  CAIN.ueD2DTx[0].nic.pdcpRrc  sentPacketToLowerLayer:vector(packetBytes)  ETV
attr interpolationmode  none
attr source  sentPacketToLowerLayer
vector 209  CAIN.ueD2DTx[0].nic.mac  receivedPacketFromUpperLayer:vector(packetBytes)  ETV
attr interpolationmode  none
attr source  receivedPacketFromUpperLayer
vector 219  CAIN.ueD2DTx[0].nic.mac  CainHopMessageSent:vector  ETV
attr interpolationmode  none
attr title  "# of Sent CAIN hop message, vector"
vector 530  CAIN.ueD2DTx[10].nic.mac  receivedPacketFromLowerLayer:vector(packetBytes)  ETV
attr interpolationmode  none
attr source  receivedPacketFromLowerLayer
vector 690  CAIN.ueD2DTx[15].nic.mac  receivedPacketFromLowerLayer:vector(packetBytes)  ETV
attr interpolationmode  none
attr source  receivedPacketFromLowerLayer
vector 691  CAIN.ueD2DTx[15].nic.mac  sentPacketToUpperLayer:vector(packetBytes)  ETV
attr interpolationmode  none
attr source  sentPacketToUpperLayer
vector 1461  CAIN.eNodeB1.sctp  "SendQueue of Association 5"  ETV
vector 1225  CAIN.eNodeB1.sctp  "TSN Sent 5:10.0.5.1"  ETV
vector 1232  CAIN.eNodeB1.sctp  "Outstanding Bytes 5:10.0.5.1"  ETV
vector 1030  CAIN.eNodeB1.sctp  "Outstanding Bytes 4:Total"  ETV
vector 1231  CAIN.eNodeB1.sctp  "Queued Sent Bytes 5:10.0.5.1"  ETV
vector 1029  CAIN.eNodeB1.sctp  "Queued Sent Bytes 4:Total"  ETV
vector 755  CAIN.ueD2DTx[17].nic.mac  sentPacketToUpperLayer:vector(packetBytes)  ETV
attr interpolationmode  none
attr source  sentPacketToUpperLayer
vector 1074  CAIN.eNodeB.sctp  "TSN Received 1:10.0.5.2"  ETV
vector 1050  CAIN.eNodeB.sctp  "Queued Received Bytes 1:Total"  ETV
vector 1046  CAIN.eNodeB.sctp  "Advertised Receiver Window 1"  ETV
vector 1055  CAIN.eNodeB.sctp  "Number of Total Gap Blocks Stored 1"  ETV
vector 1056  CAIN.eNodeB.sctp  "Number of Revokable Gap Blocks Stored 1"  ETV
vector 1057  CAIN.eNodeB.sctp  "Number of Non-Revokable Gap Blocks Stored 1"  ETV
vector 1058  CAIN.eNodeB.sctp  "Number of Duplicate TSNs Stored 1"  ETV
vector 1062  CAIN.eNodeB.sctp  "Length of SACK Sent 1"  ETV
vector 1059  CAIN.eNodeB.sctp  "Number of Revokable Gap Blocks Sent 1"  ETV
vector 1060  CAIN.eNodeB.sctp  "Number of Non-Revokable Gap Blocks Sent 1"  ETV
vector 1061  CAIN.eNodeB.sctp  "Number of Duplicate TSNs Sent 1"  ETV
vector 1066  CAIN.eNodeB.sctp  "End to End Delay of Association 1"  ETV
vector 141  CAIN.eNodeB.x2App[0].client  rcvdPk:vector(packetBytes)  ETV
attr interpolationmode  none
attr source  rcvdPk
attr title  "packets received, vector(packetBytes)"
vector 1460  CAIN.eNodeB1.sctp  "Number of Gap Blocks in Last SACK of Association 5"  ETV
vector 1031  CAIN.eNodeB1.sctp  "Number of Revokable Gap Blocks in SACK 4"  ETV
vector 1032  CAIN.eNodeB1.sctp  "Number of Non-Revokable Gap Blocks in SACK 4"  ETV
vector 1242  CAIN.eNodeB1.sctp  "TSN Acked CumAck 5:10.0.5.1"  ETV
vector 1208  CAIN.eNodeB1.sctp  "Number of Gap Acked Chunks in Last SACK 5:10.0.2.2"  ETV
vector 1209  CAIN.eNodeB1.sctp  "Number of Non-Revokable Gap Acked Chunks in Last SACK 5:10.0.2.2"  ETV
vector 1210  CAIN.eNodeB1.sctp  "Number of Gap Missed Chunks in Last SACK 5:10.0.2.2"  ETV
vector 1181  CAIN.eNodeB1.sctp  "Number of Gap Acked Chunks in Last SACK 5:10.0.4.1"  ETV
vector 1182  CAIN.eNodeB1.sctp  "Number of Non-Revokable Gap Acked Chunks in Last SACK 5:10.0.4.1"  ETV
vector 1183  CAIN.eNodeB1.sctp  "Number of Gap Missed Chunks in Last SACK 5:10.0.4.1"  ETV
vector 1235  CAIN.eNodeB1.sctp  "Number of Gap Acked Chunks in Last SACK 5:10.0.5.1"  ETV
vector 1236  CAIN.eNodeB1.sctp  "Number of Non-Revokable Gap Acked Chunks in Last SACK 5:10.0.5.1"  ETV
vector 1237  CAIN.eNodeB1.sctp  "Number of Gap Missed Chunks in Last SACK 5:10.0.5.1"  ETV
vector 1041  CAIN.eNodeB1.sctp  "Arwnd in Last SACK 4"  ETV
vector 1244  CAIN.eNodeB1.sctp  "TSN PseudoCumAck 5:10.0.5.1"  ETV
vector 1245  CAIN.eNodeB1.sctp  "TSN RTXPseudoCumAck 5:10.0.5.1"  ETV
vector 1238  CAIN.eNodeB1.sctp  "Partial Bytes Acked 5:10.0.5.1"  ETV
vector 1925  CAIN.ueD2DTx[1].tcp  tcpRcvQueueBytes  ETV
vector 1912  CAIN.ueD2DTx[1].tcp  "advertised window"  ETV
vector 1911  CAIN.ueD2DTx[1].tcp  "receive window"  ETV
vector 1914  CAIN.ueD2DTx[1].tcp  "sent ack"  ETV
vector 237  CAIN.ueD2DTx[1].nic.pdcpRrc  receivedPacketFromUpperLayer:vector(packetBytes)  ETV
attr interpolationmode  none
attr source  receivedPacketFromUpperLayer
vector 240  CAIN.ueD2DTx[1].nic.pdcpRrc  sentPacketToLowerLayer:vector(packetBytes)  ETV
attr interpolationmode  none
attr source  sentPacketToLowerLayer
vector 241  CAIN.ueD2DTx[1].nic.mac  receivedPacketFromUpperLayer:vector(packetBytes)  ETV
attr interpolationmode  none
attr source  receivedPacketFromUpperLayer
vector 244  CAIN.ueD2DTx[1].nic.mac  sentPacketToLowerLayer:vector(packetBytes)  ETV
attr interpolationmode  none
attr source  sentPacketToLowerLayer
vector 109  CAIN.eNodeB.nic.mac  ServedHopDevs:vector  ETV
attr interpolationmode  none
attr title  "# of devices served on hop forwarding, vector"
vector 507  CAIN.ueD2DTx[9].nic.mac  CainHopMessageSent:vector  ETV
attr interpolationmode  none
attr title  "# of Sent CAIN hop message, vector"
vector 242  CAIN.ueD2DTx[1].nic.mac  receivedPacketFromLowerLayer:vector(packetBytes)  ETV
attr interpolationmode  none
attr source  receivedPacketFromLowerLayer
vector 1949  CAIN.ueD2DTx[5].tcp  tcpRcvQueueBytes  ETV
vector 1936  CAIN.ueD2DTx[5].tcp  "advertised window"  ETV
vector 1935  CAIN.ueD2DTx[5].tcp  "receive window"  ETV
vector 1938  CAIN.ueD2DTx[5].tcp  "sent ack"  ETV
vector 365  CAIN.ueD2DTx[5].nic.pdcpRrc  receivedPacketFromUpperLayer:vector(packetBytes)  ETV
attr interpolationmode  none
attr source  receivedPacketFromUpperLayer
vector 368  CAIN.ueD2DTx[5].nic.pdcpRrc  sentPacketToLowerLayer:vector(packetBytes)  ETV
attr interpolationmode  none
attr source  sentPacketToLowerLayer
vector 369  CAIN.ueD2DTx[5].nic.mac  receivedPacketFromUpperLayer:vector(packetBytes)  ETV
attr interpolationmode  none
attr source  receivedPacketFromUpperLayer
vector 1973  CAIN.ueD2DTx[22].tcp  tcpRcvQueueBytes  ETV
vector 1960  CAIN.ueD2DTx[22].tcp  "advertised window"  ETV
vector 1959  CAIN.ueD2DTx[22].tcp  "receive window"  ETV
vector 1962  CAIN.ueD2DTx[22].tcp  "sent ack"  ETV
vector 909  CAIN.ueD2DTx[22].nic.pdcpRrc  receivedPacketFromUpperLayer:vector(packetBytes)  ETV
attr interpolationmode  none
attr source  receivedPacketFromUpperLayer
vector 912  CAIN.ueD2DTx[22].nic.pdcpRrc  sentPacketToLowerLayer:vector(packetBytes)  ETV
attr interpolationmode  none
attr source  sentPacketToLowerLayer
vector 913  CAIN.ueD2DTx[22].nic.mac  receivedPacketFromUpperLayer:vector(packetBytes)  ETV
attr interpolationmode  none
attr source  receivedPacketFromUpperLayer
vector 243  CAIN.ueD2DTx[1].nic.mac  sentPacketToUpperLayer:vector(packetBytes)  ETV
attr interpolationmode  none
attr source  sentPacketToUpperLayer
vector 379  CAIN.ueD2DTx[5].nic.mac  CainHopMessageSent:vector  ETV
attr interpolationmode  none
attr title  "# of Sent CAIN hop message, vector"
vector 372  CAIN.ueD2DTx[5].nic.mac  sentPacketToLowerLayer:vector(packetBytes)  ETV
attr interpolationmode  none
attr source  sentPacketToLowerLayer
vector 922  CAIN.ueD2DTx[22].nic.mac  CainMessageSent:vector  ETV
attr interpolationmode  none
attr title  "# of Sent CAIN message, vector"
vector 916  CAIN.ueD2DTx[22].nic.mac  sentPacketToLowerLayer:vector(packetBytes)  ETV
attr interpolationmode  none
attr source  sentPacketToLowerLayer
vector 154  CAIN.eNodeB1.nic.mac  receivedPacketFromLowerLayer:vector(packetBytes)  ETV
attr interpolationmode  none
attr source  receivedPacketFromLowerLayer
vector 1997  CAIN.ueD2DTx[3].tcp  tcpRcvQueueBytes  ETV
vector 1984  CAIN.ueD2DTx[3].tcp  "advertised window"  ETV
vector 1983  CAIN.ueD2DTx[3].tcp  "receive window"  ETV
vector 1986  CAIN.ueD2DTx[3].tcp  "sent ack"  ETV
vector 301  CAIN.ueD2DTx[3].nic.pdcpRrc  receivedPacketFromUpperLayer:vector(packetBytes)  ETV
attr interpolationmode  none
attr source  receivedPacketFromUpperLayer
vector 304  CAIN.ueD2DTx[3].nic.pdcpRrc  sentPacketToLowerLayer:vector(packetBytes)  ETV
attr interpolationmode  none
attr source  sentPacketToLowerLayer
vector 305  CAIN.ueD2DTx[3].nic.mac  receivedPacketFromUpperLayer:vector(packetBytes)  ETV
attr interpolationmode  none
attr source  receivedPacketFromUpperLayer
vector 308  CAIN.ueD2DTx[3].nic.mac  sentPacketToLowerLayer:vector(packetBytes)  ETV
attr interpolationmode  none
attr source  sentPacketToLowerLayer
vector 306  CAIN.ueD2DTx[3].nic.mac  receivedPacketFromLowerLayer:vector(packetBytes)  ETV
attr interpolationmode  none
attr source  receivedPacketFromLowerLayer
vector 307  CAIN.ueD2DTx[3].nic.mac  sentPacketToUpperLayer:vector(packetBytes)  ETV
attr interpolationmode  none
attr source  sentPacketToUpperLayer
vector 2021  CAIN.ueD2DTx[16].tcp  tcpRcvQueueBytes  ETV
vector 2008  CAIN.ueD2DTx[16].tcp  "advertised window"  ETV
vector 2007  CAIN.ueD2DTx[16].tcp  "receive window"  ETV
vector 2010  CAIN.ueD2DTx[16].tcp  "sent ack"  ETV
vector 717  CAIN.ueD2DTx[16].nic.pdcpRrc  receivedPacketFromUpperLayer:vector(packetBytes)  ETV
attr interpolationmode  none
attr source  receivedPacketFromUpperLayer
vector 720  CAIN.ueD2DTx[16].nic.pdcpRrc  sentPacketToLowerLayer:vector(packetBytes)  ETV
attr interpolationmode  none
attr source  sentPacketToLowerLayer
vector 721  CAIN.ueD2DTx[16].nic.mac  receivedPacketFromUpperLayer:vector(packetBytes)  ETV
attr interpolationmode  none
attr source  receivedPacketFromUpperLayer
vector 169  CAIN.eNodeB1.nic.mac  racpkt:vector  ETV
attr interpolationmode  none
attr title  "eNB received racpkt message, vector"
vector 170  CAIN.eNodeB1.nic.mac  racDistanceSignal:vector  ETV
attr interpolationmode  none
attr title  "Rac distance to enb, vector"
vector 171  CAIN.eNodeB1.nic.mac  racServedDevsSignal:vector  ETV
attr interpolationmode  none
attr title  "# of devices served on rac arriavall, vector"
vector 156  CAIN.eNodeB1.nic.mac  sentPacketToLowerLayer:vector(packetBytes)  ETV
attr interpolationmode  none
attr source  sentPacketToLowerLayer
vector 2045  CAIN.ueD2DTx[23].tcp  tcpRcvQueueBytes  ETV
vector 2032  CAIN.ueD2DTx[23].tcp  "advertised window"  ETV
vector 2031  CAIN.ueD2DTx[23].tcp  "receive window"  ETV
vector 2034  CAIN.ueD2DTx[23].tcp  "sent ack"  ETV
vector 941  CAIN.ueD2DTx[23].nic.pdcpRrc  receivedPacketFromUpperLayer:vector(packetBytes)  ETV
attr interpolationmode  none
attr source  receivedPacketFromUpperLayer
vector 944  CAIN.ueD2DTx[23].nic.pdcpRrc  sentPacketToLowerLayer:vector(packetBytes)  ETV
attr interpolationmode  none
attr source  sentPacketToLowerLayer
vector 945  CAIN.ueD2DTx[23].nic.mac  receivedPacketFromUpperLayer:vector(packetBytes)  ETV
attr interpolationmode  none
attr source  receivedPacketFromUpperLayer
vector 947  CAIN.ueD2DTx[23].nic.mac  sentPacketToUpperLayer:vector(packetBytes)  ETV
attr interpolationmode  none
attr source  sentPacketToUpperLayer
vector 2069  CAIN.ueD2DTx[18].tcp  tcpRcvQueueBytes  ETV
vector 2056  CAIN.ueD2DTx[18].tcp  "advertised window"  ETV
vector 2055  CAIN.ueD2DTx[18].tcp  "receive window"  ETV
vector 2058  CAIN.ueD2DTx[18].tcp  "sent ack"  ETV
vector 781  CAIN.ueD2DTx[18].nic.pdcpRrc  receivedPacketFromUpperLayer:vector(packetBytes)  ETV
attr interpolationmode  none
attr source  receivedPacketFromUpperLayer
vector 784  CAIN.ueD2DTx[18].nic.pdcpRrc  sentPacketToLowerLayer:vector(packetBytes)  ETV
attr interpolationmode  none
attr source  sentPacketToLowerLayer
vector 785  CAIN.ueD2DTx[18].nic.mac  receivedPacketFromUpperLayer:vector(packetBytes)  ETV
attr interpolationmode  none
attr source  receivedPacketFromUpperLayer
vector 787  CAIN.ueD2DTx[18].nic.mac  sentPacketToUpperLayer:vector(packetBytes)  ETV
attr interpolationmode  none
attr source  sentPacketToUpperLayer
vector 603  CAIN.ueD2DTx[12].nic.mac  CainHopMessageSent:vector  ETV
attr interpolationmode  none
attr title  "# of Sent CAIN hop message, vector"
1268	175	0.0000001228	0
1379	260	0.0000006304	65535
1380	260	0.0000006304	8940
1381	260	0.0000006304	0.3725
1377	260	0.0000006304	3
1384	260	0.0000006304	1
1396	188	0.0000003096	0
1352	260	0.0000006304	65535
1353	260	0.0000006304	8940
1354	260	0.0000006304	0.3725
1350	260	0.0000006304	3
1357	260	0.0000006304	1
1369	188	0.0000003096	0
1070	260	0.0000006304	65535
1071	260	0.0000006304	8940
1072	260	0.0000006304	0.3725
1068	260	0.0000006304	3
1068	327	0.0000008564	1
1069	327	0.0000008564	2.26e-07
1074	4436	0.0570000972	2000
1074	4455	0.0570003844	2001
1074	4455	0.0570003844	2002
1074	4455	0.0570003844	2003
1074	4455	0.0570003844	2004
1074	4455	0.0570003844	2005
1074	4455	0.0570003844	2006
1074	4455	0.0570003844	2007
1074	19350	0.2570015836	2008
1074	19350	0.2570015836	2009
1074	19350	0.2570015836	2010
1074	19350	0.2570015836	2011
1074	19350	0.2570015836	2012
1074	19350	0.2570015836	2013
1074	19350	0.2570015836	2014
1074	19350	0.2570015836	2015
1074	19350	0.2570015836	2016
1074	19350	0.2570015836	2017
1074	19350	0.2570015836	2018
1074	19350	0.2570015836	2019
1074	19350	0.2570015836	2020
1074	19350	0.2570015836	2021
1074	19350	0.2570015836	2022
1074	19350	0.2570015836	2023
1074	19350	0.2570015836	2024
1074	19350	0.2570015836	2025
1074	19350	0.2570015836	2026
1074	19350	0.2570015836	2027
1074	19350	0.2570015836	2028
1074	19350	0.2570015836	2029
1074	19350	0.2570015836	2030
1074	19350	0.2570015836	2031
1074	19350	0.2570015836	2032
1074	19350	0.2570015836	2033
1074	19350	0.2570015836	2034
1074	19350	0.2570015836	2035
1074	19350	0.2570015836	2036
1074	19350	0.2570015836	2037
1074	19350	0.2570015836	2038
1074	19350	0.2570015836	2039
1074	19350	0.2570015836	2040
1074	19350	0.2570015836	2041
1074	19350	0.2570015836	2042
1074	19350	0.2570015836	2043
1074	19350	0.2570015836	2044
1074	19350	0.2570015836	2045
1074	19350	0.2570015836	2046
1074	19350	0.2570015836	2047
1074	19350	0.2570015836	2048
1074	19350	0.2570015836	2049
1074	19350	0.2570015836	2050
1074	19350	0.2570015836	2051
1074	19350	0.2570015836	2052
1074	19350	0.2570015836	2053
1074	19350	0.2570015836	2054
1074	19350	0.2570015836	2055
1074	19350	0.2570015836	2056
1074	19350	0.2570015836	2057
1074	19350	0.2570015836	2058
1074	19350	0.2570015836	2059
1074	19350	0.2570015836	2060
1074	19350	0.2570015836	2061
1074	19350	0.2570015836	2062
1074	19350	0.2570015836	2063
1074	19350	0.2570015836	2064
1074	19350	0.2570015836	2065
1074	19350	0.2570015836	2066
1074	19350	0.2570015836	2067
1074	19350	0.2570015836	2068
1074	19350	0.2570015836	2069
1074	19350	0.2570015836	2070
1074	19350	0.2570015836	2071
1077	232	0.000000552	1
1077	246	0.000000596	2
1076	232	0.000000552	1
1076	246	0.000000596	2
1078	327	0.0000008564	1
1078	333	0.0000009004	2
1087	156	0	0
1046	4436	0.0570000972	65533
1046	19336	0.2570003844	65535
1046	33510	0.4570015836	65535
1050	4436	0.0570000972	2
1050	4439	0.0570000972	2
1050	4463	0.0570003844	14
1050	4464	0.0570003844	0
1050	4465	0.0570003844	0
1050	4466	0.0570003844	0
1050	4467	0.0570003844	0
1050	4468	0.0570003844	0
1050	4469	0.0570003844	0
1050	19336	0.2570003844	0
1050	19415	0.2570015836	128
1050	19416	0.2570015836	0
1050	19417	0.2570015836	0
1050	19418	0.2570015836	0
1050	19419	0.2570015836	0
1050	19420	0.2570015836	0
1050	19421	0.2570015836	0
1050	19422	0.2570015836	0
1050	19423	0.2570015836	0
1050	19424	0.2570015836	0
1050	19425	0.2570015836	0
1050	19426	0.2570015836	0
1050	19427	0.2570015836	0
1050	19428	0.2570015836	0
1050	19429	0.2570015836	0
1050	19430	0.2570015836	0
1050	19431	0.2570015836	0
1050	19432	0.2570015836	0
1050	19433	0.2570015836	0
1050	19434	0.2570015836	0
1050	19435	0.2570015836	0
1050	19436	0.2570015836	0
1050	19437	0.2570015836	0
1050	19438	0.2570015836	0
1050	19439	0.2570015836	0
1050	19440	0.2570015836	0
1050	19441	0.2570015836	0
1050	19442	0.2570015836	0
1050	19443	0.2570015836	0
1050	19444	0.2570015836	0
1050	19445	0.2570015836	0
1050	19446	0.2570015836	0
1050	19447	0.2570015836	0
1050	19448	0.2570015836	0
1050	19449	0.2570015836	0
1050	19450	0.2570015836	0
1050	19451	0.2570015836	0
1050	19452	0.2570015836	0
1050	19453	0.2570015836	0
1050	19454	0.2570015836	0
1050	19455	0.2570015836	0
1050	19456	0.2570015836	0
1050	19457	0.2570015836	0
1050	19458	0.2570015836	0
1050	19459	0.2570015836	0
1050	19460	0.2570015836	0
1050	19461	0.2570015836	0
1050	19462	0.2570015836	0
1050	19463	0.2570015836	0
1050	19464	0.2570015836	0
1050	19465	0.2570015836	0
1050	19466	0.2570015836	0
1050	19467	0.2570015836	0
1050	19468	0.2570015836	0
1050	19469	0.2570015836	0
1050	19470	0.2570015836	0
1050	19471	0.2570015836	0
1050	19472	0.2570015836	0
1050	19473	0.2570015836	0
1050	19474	0.2570015836	0
1050	19475	0.2570015836	0
1050	19476	0.2570015836	0
1050	19477	0.2570015836	0
1050	19478	0.2570015836	0
1050	33510	0.4570015836	0
1055	4436	0.0570000972	0
1055	19336	0.2570003844	0
1055	33510	0.4570015836	0
1056	4436	0.0570000972	0
1056	19336	0.2570003844	0
1056	33510	0.4570015836	0
1057	4436	0.0570000972	0
1057	19336	0.2570003844	0
1057	33510	0.4570015836	0
1058	4436	0.0570000972	0
1058	19336	0.2570003844	0
1058	33510	0.4570015836	0
1059	4436	0.0570000972	0
1059	19336	0.2570003844	0
1059	33510	0.4570015836	0
1060	4436	0.0570000972	0
1060	19336	0.2570003844	0
1060	33510	0.4570015836	0
1061	4436	0.0570000972	0
1061	19336	0.2570003844	0
1061	33510	0.4570015836	0
1062	4436	0.0570000972	16
1062	19336	0.2570003844	16
1062	33510	0.4570015836	16
1064	188	0.0000003096	65535
1066	4439	0.0570000972	9.72e-08
1066	4463	0.0570003844	1.932e-07
1066	4463	0.0570003844	1.932e-07
1066	4463	0.0570003844	1.932e-07
1066	4463	0.0570003844	1.932e-07
1066	4463	0.0570003844	1.932e-07
1066	4463	0.0570003844	1.932e-07
1066	4463	0.0570003844	1.932e-07
1066	19415	0.2570015836	1.1052e-06
1066	19415	0.2570015836	1.1052e-06
1066	19415	0.2570015836	1.1052e-06
1066	19415	0.2570015836	1.1052e-06
1066	19415	0.2570015836	1.1052e-06
1066	19415	0.2570015836	1.1052e-06
1066	19415	0.2570015836	1.1052e-06
1066	19415	0.2570015836	1.1052e-06
1066	19415	0.2570015836	1.1052e-06
1066	19415	0.2570015836	1.1052e-06
1066	19415	0.2570015836	1.1052e-06
1066	19415	0.2570015836	1.1052e-06
1066	19415	0.2570015836	1.1052e-06
1066	19415	0.2570015836	1.1052e-06
1066	19415	0.2570015836	1.1052e-06
1066	19415	0.2570015836	1.1052e-06
1066	19415	0.2570015836	1.1052e-06
1066	19415	0.2570015836	1.1052e-06
1066	19415	0.2570015836	1.1052e-06
1066	19415	0.2570015836	1.1052e-06
1066	19415	0.2570015836	1.1052e-06
1066	19415	0.2570015836	1.1052e-06
1066	19415	0.2570015836	1.1052e-06
1066	19415	0.2570015836	1.1052e-06
1066	19415	0.2570015836	1.1052e-06
1066	19415	0.2570015836	1.1052e-06
1066	19415	0.2570015836	1.1052e-06
1066	19415	0.2570015836	1.1052e-06
1066	19415	0.2570015836	1.1052e-06
1066	19415	0.2570015836	1.1052e-06
1066	19415	0.2570015836	1.1052e-06
1066	19415	0.2570015836	1.1052e-06
1066	19415	0.2570015836	1.1052e-06
1066	19415	0.2570015836	1.1052e-06
1066	19415	0.2570015836	1.1052e-06
1066	19415	0.2570015836	1.1052e-06
1066	19415	0.2570015836	1.1052e-06
1066	19415	0.2570015836	1.1052e-06
1066	19415	0.2570015836	1.1052e-06
1066	19415	0.2570015836	1.1052e-06
1066	19415	0.2570015836	1.1052e-06
1066	19415	0.2570015836	1.1052e-06
1066	19415	0.2570015836	1.1052e-06
1066	19415	0.2570015836	1.1052e-06
1066	19415	0.2570015836	1.1052e-06
1066	19415	0.2570015836	1.1052e-06
1066	19415	0.2570015836	1.1052e-06
1066	19415	0.2570015836	1.1052e-06
1066	19415	0.2570015836	1.1052e-06
1066	19415	0.2570015836	1.1052e-06
1066	19415	0.2570015836	1.1052e-06
1066	19415	0.2570015836	1.1052e-06
1066	19415	0.2570015836	1.1052e-06
1066	19415	0.2570015836	1.1052e-06
1066	19415	0.2570015836	1.1052e-06
1066	19415	0.2570015836	1.1052e-06
1066	19415	0.2570015836	1.1052e-06
1066	19415	0.2570015836	1.1052e-06
1066	19415	0.2570015836	1.1052e-06
1066	19415	0.2570015836	1.1052e-06
1066	19415	0.2570015836	1.1052e-06
1066	19415	0.2570015836	1.1052e-06
1066	19415	0.2570015836	1.1052e-06
1066	19415	0.2570015836	1.1052e-06
1067	156	0	0
1298	203	0.000000458	65535
1299	203	0.000000458	8940
1300	203	0.000000458	0.3725
1296	203	0.000000458	3
1303	203	0.000000458	1
1311	729	0.0070001912	0
1311	15602	0.2070004784	0
1311	30053	0.4070016776	0
1312	729	0.0070001912	0
1312	15602	0.2070004784	0
1312	30053	0.4070016776	0
1313	729	0.0070001912	0
1313	15602	0.2070004784	0
1313	30053	0.4070016776	0
1315	175	0.0000001228	0
1271	203	0.000000458	65535
1272	203	0.000000458	8940
1273	203	0.000000458	0.3725
1269	203	0.000000458	3
1276	203	0.000000458	1
1284	729	0.0070001912	0
1284	15602	0.2070004784	0
1284	30053	0.4070016776	0
1285	729	0.0070001912	0
1285	15602	0.2070004784	0
1285	30053	0.4070016776	0
1286	729	0.0070001912	0
1286	15602	0.2070004784	0
1286	30053	0.4070016776	0
1288	175	0.0000001228	0
1325	203	0.000000458	65535
1325	85353	1.2070004784	65535
1326	203	0.000000458	8940
1326	85353	1.2070004784	8940
1327	203	0.000000458	0.3725
1327	85353	1.2070004784	23.84
1323	203	0.000000458	3
1323	280	0.0000006744	1
1323	729	0.0070001912	1
1323	15602	0.2070004784	1
1323	30053	0.4070016776	1
1324	280	0.0000006744	2.164e-07
1324	729	0.0070001912	1.912e-07
1324	15602	0.2070004784	0.2000002872
1324	30053	0.4070016776	0.2000011992
1328	674	0.007	2000
1328	729	0.0070001912	2001
1328	729	0.0070001912	2002
1328	729	0.0070001912	2003
1328	729	0.0070001912	2004
1328	729	0.0070001912	2005
1328	729	0.0070001912	2006
1328	729	0.0070001912	2007
1328	15602	0.2070004784	2008
1328	15602	0.2070004784	2009
1328	15602	0.2070004784	2010
1328	15602	0.2070004784	2011
1328	15602	0.2070004784	2012
1328	15602	0.2070004784	2013
1328	15602	0.2070004784	2014
1328	15602	0.2070004784	2015
1328	15602	0.2070004784	2016
1328	15602	0.2070004784	2017
1328	15602	0.2070004784	2018
1328	15602	0.2070004784	2019
1328	15602	0.2070004784	2020
1328	15602	0.2070004784	2021
1328	15602	0.2070004784	2022
1328	15602	0.2070004784	2023
1328	15602	0.2070004784	2024
1328	15602	0.2070004784	2025
1328	15602	0.2070004784	2026
1328	15602	0.2070004784	2027
1328	15602	0.2070004784	2028
1328	15602	0.2070004784	2029
1328	15602	0.2070004784	2030
1328	15602	0.2070004784	2031
1328	15602	0.2070004784	2032
1328	15602	0.2070004784	2033
1328	15602	0.2070004784	2034
1328	15602	0.2070004784	2035
1328	15602	0.2070004784	2036
1328	15602	0.2070004784	2037
1328	15602	0.2070004784	2038
1328	15602	0.2070004784	2039
1328	15602	0.2070004784	2040
1328	15602	0.2070004784	2041
1328	15602	0.2070004784	2042
1328	15602	0.2070004784	2043
1328	15602	0.2070004784	2044
1328	15602	0.2070004784	2045
1328	15602	0.2070004784	2046
1328	15602	0.2070004784	2047
1328	15602	0.2070004784	2048
1328	15602	0.2070004784	2049
1328	15602	0.2070004784	2050
1328	15602	0.2070004784	2051
1328	15602	0.2070004784	2052
1328	15602	0.2070004784	2053
1328	15602	0.2070004784	2054
1328	15602	0.2070004784	2055
1328	15602	0.2070004784	2056
1328	15602	0.2070004784	2057
1328	15602	0.2070004784	2058
1328	15602	0.2070004784	2059
1328	15602	0.2070004784	2060
1328	15602	0.2070004784	2061
1328	15602	0.2070004784	2062
1328	15602	0.2070004784	2063
1328	15602	0.2070004784	2064
1328	15602	0.2070004784	2065
1328	15602	0.2070004784	2066
1328	15602	0.2070004784	2067
1328	15602	0.2070004784	2068
1328	15602	0.2070004784	2069
1328	15602	0.2070004784	2070
1328	15602	0.2070004784	2071
1332	298	0.0000007624	1
1332	312	0.0000008064	2
1331	298	0.0000007624	1
1331	312	0.0000008064	2
1333	280	0.0000006744	1
1333	290	0.0000007184	2
1334	674	0.007	2
1334	729	0.0070001912	0
1334	729	0.0070001912	2
1334	729	0.0070001912	4
1334	729	0.0070001912	6
1334	729	0.0070001912	8
1334	729	0.0070001912	10
1334	729	0.0070001912	12
1334	729	0.0070001912	14
1334	15602	0.2070004784	12
1334	15602	0.2070004784	10
1334	15602	0.2070004784	8
1334	15602	0.2070004784	6
1334	15602	0.2070004784	4
1334	15602	0.2070004784	2
1334	15602	0.2070004784	0
1334	15602	0.2070004784	2
1334	15602	0.2070004784	4
1334	15602	0.2070004784	6
1334	15602	0.2070004784	8
1334	15602	0.2070004784	10
1334	15602	0.2070004784	12
1334	15602	0.2070004784	14
1334	15602	0.2070004784	16
1334	15602	0.2070004784	18
1334	15602	0.2070004784	20
1334	15602	0.2070004784	22
1334	15602	0.2070004784	24
1334	15602	0.2070004784	26
1334	15602	0.2070004784	28
1334	15602	0.2070004784	30
1334	15602	0.2070004784	32
1334	15602	0.2070004784	34
1334	15602	0.2070004784	36
1334	15602	0.2070004784	38
1334	15602	0.2070004784	40
1334	15602	0.2070004784	42
1334	15602	0.2070004784	44
1334	15602	0.2070004784	46
1334	15602	0.2070004784	48
1334	15602	0.2070004784	50
1334	15602	0.2070004784	52
1334	15602	0.2070004784	54
1334	15602	0.2070004784	56
1334	15602	0.2070004784	58
1334	15602	0.2070004784	60
1334	15602	0.2070004784	62
1334	15602	0.2070004784	64
1334	15602	0.2070004784	66
1334	15602	0.2070004784	68
1334	15602	0.2070004784	70
1334	15602	0.2070004784	72
1334	15602	0.2070004784	74
1334	15602	0.2070004784	76
1334	15602	0.2070004784	78
1334	15602	0.2070004784	80
1334	15602	0.2070004784	82
1334	15602	0.2070004784	84
1334	15602	0.2070004784	86
1334	15602	0.2070004784	88
1334	15602	0.2070004784	90
1334	15602	0.2070004784	92
1334	15602	0.2070004784	94
1334	15602	0.2070004784	96
1334	15602	0.2070004784	98
1334	15602	0.2070004784	100
1334	15602	0.2070004784	102
1334	15602	0.2070004784	104
1334	15602	0.2070004784	106
1334	15602	0.2070004784	108
1334	15602	0.2070004784	110
1334	15602	0.2070004784	112
1334	15602	0.2070004784	114
1334	15602	0.2070004784	116
1334	15602	0.2070004784	118
1334	15602	0.2070004784	120
1334	15602	0.2070004784	122
1334	15602	0.2070004784	124
1334	15602	0.2070004784	126
1334	15602	0.2070004784	128
1334	30053	0.4070016776	126
1334	30053	0.4070016776	124
1334	30053	0.4070016776	122
1334	30053	0.4070016776	120
1334	30053	0.4070016776	118
1334	30053	0.4070016776	116
1334	30053	0.4070016776	114
1334	30053	0.4070016776	112
1334	30053	0.4070016776	110
1334	30053	0.4070016776	108
1334	30053	0.4070016776	106
1334	30053	0.4070016776	104
1334	30053	0.4070016776	102
1334	30053	0.4070016776	100
1334	30053	0.4070016776	98
1334	30053	0.4070016776	96
1334	30053	0.4070016776	94
1334	30053	0.4070016776	92
1334	30053	0.4070016776	90
1334	30053	0.4070016776	88
1334	30053	0.4070016776	86
1334	30053	0.4070016776	84
1334	30053	0.4070016776	82
1334	30053	0.4070016776	80
1334	30053	0.4070016776	78
1334	30053	0.4070016776	76
1334	30053	0.4070016776	74
1334	30053	0.4070016776	72
1334	30053	0.4070016776	70
1334	30053	0.4070016776	68
1334	30053	0.4070016776	66
1334	30053	0.4070016776	64
1334	30053	0.4070016776	62
1334	30053	0.4070016776	60
1334	30053	0.4070016776	58
1334	30053	0.4070016776	56
1334	30053	0.4070016776	54
1334	30053	0.4070016776	52
1334	30053	0.4070016776	50
1334	30053	0.4070016776	48
1334	30053	0.4070016776	46
1334	30053	0.4070016776	44
1334	30053	0.4070016776	42
1334	30053	0.4070016776	40
1334	30053	0.4070016776	38
1334	30053	0.4070016776	36
1334	30053	0.4070016776	34
1334	30053	0.4070016776	32
1334	30053	0.4070016776	30
1334	30053	0.4070016776	28
1334	30053	0.4070016776	26
1334	30053	0.4070016776	24
1334	30053	0.4070016776	22
1334	30053	0.4070016776	20
1334	30053	0.4070016776	18
1334	30053	0.4070016776	16
1334	30053	0.4070016776	14
1334	30053	0.4070016776	12
1334	30053	0.4070016776	10
1334	30053	0.4070016776	8
1334	30053	0.4070016776	6
1334	30053	0.4070016776	4
1334	30053	0.4070016776	2
1334	30053	0.4070016776	0
1335	674	0.007	2
1335	729	0.0070001912	0
1335	729	0.0070001912	2
1335	729	0.0070001912	4
1335	729	0.0070001912	6
1335	729	0.0070001912	8
1335	729	0.0070001912	10
1335	729	0.0070001912	12
1335	729	0.0070001912	14
1335	15602	0.2070004784	12
1335	15602	0.2070004784	10
1335	15602	0.2070004784	8
1335	15602	0.2070004784	6
1335	15602	0.2070004784	4
1335	15602	0.2070004784	2
1335	15602	0.2070004784	0
1335	15602	0.2070004784	2
1335	15602	0.2070004784	4
1335	15602	0.2070004784	6
1335	15602	0.2070004784	8
1335	15602	0.2070004784	10
1335	15602	0.2070004784	12
1335	15602	0.2070004784	14
1335	15602	0.2070004784	16
1335	15602	0.2070004784	18
1335	15602	0.2070004784	20
1335	15602	0.2070004784	22
1335	15602	0.2070004784	24
1335	15602	0.2070004784	26
1335	15602	0.2070004784	28
1335	15602	0.2070004784	30
1335	15602	0.2070004784	32
1335	15602	0.2070004784	34
1335	15602	0.2070004784	36
1335	15602	0.2070004784	38
1335	15602	0.2070004784	40
1335	15602	0.2070004784	42
1335	15602	0.2070004784	44
1335	15602	0.2070004784	46
1335	15602	0.2070004784	48
1335	15602	0.2070004784	50
1335	15602	0.2070004784	52
1335	15602	0.2070004784	54
1335	15602	0.2070004784	56
1335	15602	0.2070004784	58
1335	15602	0.2070004784	60
1335	15602	0.2070004784	62
1335	15602	0.2070004784	64
1335	15602	0.2070004784	66
1335	15602	0.2070004784	68
1335	15602	0.2070004784	70
1335	15602	0.2070004784	72
1335	15602	0.2070004784	74
1335	15602	0.2070004784	76
1335	15602	0.2070004784	78
1335	15602	0.2070004784	80
1335	15602	0.2070004784	82
1335	15602	0.2070004784	84
1335	15602	0.2070004784	86
1335	15602	0.2070004784	88
1335	15602	0.2070004784	90
1335	15602	0.2070004784	92
1335	15602	0.2070004784	94
1335	15602	0.2070004784	96
1335	15602	0.2070004784	98
1335	15602	0.2070004784	100
1335	15602	0.2070004784	102
1335	15602	0.2070004784	104
1335	15602	0.2070004784	106
1335	15602	0.2070004784	108
1335	15602	0.2070004784	110
1335	15602	0.2070004784	112
1335	15602	0.2070004784	114
1335	15602	0.2070004784	116
1335	15602	0.2070004784	118
1335	15602	0.2070004784	120
1335	15602	0.2070004784	122
1335	15602	0.2070004784	124
1335	15602	0.2070004784	126
1335	15602	0.2070004784	128
1335	30053	0.4070016776	126
1335	30053	0.4070016776	124
1335	30053	0.4070016776	122
1335	30053	0.4070016776	120
1335	30053	0.4070016776	118
1335	30053	0.4070016776	116
1335	30053	0.4070016776	114
1335	30053	0.4070016776	112
1335	30053	0.4070016776	110
1335	30053	0.4070016776	108
1335	30053	0.4070016776	106
1335	30053	0.4070016776	104
1335	30053	0.4070016776	102
1335	30053	0.4070016776	100
1335	30053	0.4070016776	98
1335	30053	0.4070016776	96
1335	30053	0.4070016776	94
1335	30053	0.4070016776	92
1335	30053	0.4070016776	90
1335	30053	0.4070016776	88
1335	30053	0.4070016776	86
1335	30053	0.4070016776	84
1335	30053	0.4070016776	82
1335	30053	0.4070016776	80
1335	30053	0.4070016776	78
1335	30053	0.4070016776	76
1335	30053	0.4070016776	74
1335	30053	0.4070016776	72
1335	30053	0.4070016776	70
1335	30053	0.4070016776	68
1335	30053	0.4070016776	66
1335	30053	0.4070016776	64
1335	30053	0.4070016776	62
1335	30053	0.4070016776	60
1335	30053	0.4070016776	58
1335	30053	0.4070016776	56
1335	30053	0.4070016776	54
1335	30053	0.4070016776	52
1335	30053	0.4070016776	50
1335	30053	0.4070016776	48
1335	30053	0.4070016776	46
1335	30053	0.4070016776	44
1335	30053	0.4070016776	42
1335	30053	0.4070016776	40
1335	30053	0.4070016776	38
1335	30053	0.4070016776	36
1335	30053	0.4070016776	34
1335	30053	0.4070016776	32
1335	30053	0.4070016776	30
1335	30053	0.4070016776	28
1335	30053	0.4070016776	26
1335	30053	0.4070016776	24
1335	30053	0.4070016776	22
1335	30053	0.4070016776	20
1335	30053	0.4070016776	18
1335	30053	0.4070016776	16
1335	30053	0.4070016776	14
1335	30053	0.4070016776	12
1335	30053	0.4070016776	10
1335	30053	0.4070016776	8
1335	30053	0.4070016776	6
1335	30053	0.4070016776	4
1335	30053	0.4070016776	2
1335	30053	0.4070016776	0
1338	729	0.0070001912	0
1338	15602	0.2070004784	0
1338	30053	0.4070016776	0
1339	729	0.0070001912	0
1339	15602	0.2070004784	0
1339	30053	0.4070016776	0
1340	729	0.0070001912	0
1340	15602	0.2070004784	0
1340	30053	0.4070016776	0
1341	729	0.0070001912	0
1341	15602	0.2070004784	0
1341	30053	0.4070016776	0
1342	175	0.0000001228	0
1345	729	0.0070001912	2000
1345	15602	0.2070004784	2007
1345	30053	0.4070016776	2071
1347	729	0.0070001912	0
1347	15602	0.2070004784	0
1347	30053	0.4070016776	0
1348	729	0.0070001912	0
1348	15602	0.2070004784	0
1348	30053	0.4070016776	0
1464	729	0.0070001912	0
1464	15602	0.2070004784	0
1464	30053	0.4070016776	0
1465	674	0.007	1
1465	674	0.007	0
1465	675	0.007	1
1465	676	0.007	2
1465	677	0.007	3
1465	678	0.007	4
1465	679	0.007	5
1465	680	0.007	6
1465	681	0.007	7
1465	729	0.0070001912	6
1465	729	0.0070001912	5
1465	729	0.0070001912	4
1465	729	0.0070001912	3
1465	729	0.0070001912	2
1465	729	0.0070001912	1
1465	729	0.0070001912	0
1465	1042	0.013	1
1465	1043	0.013	2
1465	1044	0.013	3
1465	1045	0.013	4
1465	1046	0.013	5
1465	1047	0.013	6
1465	1048	0.013	7
1465	1049	0.013	8
1465	1396	0.019	9
1465	1397	0.019	10
1465	1398	0.019	11
1465	1399	0.019	12
1465	1400	0.019	13
1465	1401	0.019	14
1465	1402	0.019	15
1465	1403	0.019	16
1465	1766	0.025	17
1465	1767	0.025	18
1465	1768	0.025	19
1465	1769	0.025	20
1465	1770	0.025	21
1465	1771	0.025	22
1465	1772	0.025	23
1465	1773	0.025	24
1465	2180	0.031	25
1465	2181	0.031	26
1465	2182	0.031	27
1465	2183	0.031	28
1465	2184	0.031	29
1465	2185	0.031	30
1465	2186	0.031	31
1465	2187	0.031	32
1465	2609	0.037	33
1465	2610	0.037	34
1465	2611	0.037	35
1465	2612	0.037	36
1465	2613	0.037	37
1465	2614	0.037	38
1465	2615	0.037	39
1465	2616	0.037	40
1465	3092	0.043	41
1465	3093	0.043	42
1465	3094	0.043	43
1465	3095	0.043	44
1465	3096	0.043	45
1465	3097	0.043	46
1465	3098	0.043	47
1465	3099	0.043	48
1465	3605	0.049	49
1465	3606	0.049	50
1465	3607	0.049	51
1465	3608	0.049	52
1465	3609	0.049	53
1465	3610	0.049	54
1465	3611	0.049	55
1465	3612	0.049	56
1465	4138	0.055	57
1465	4139	0.055	58
1465	4140	0.055	59
1465	4141	0.055	60
1465	4142	0.055	61
1465	4143	0.055	62
1465	4144	0.055	63
1465	4145	0.055	64
1465	15602	0.2070004784	63
1465	15602	0.2070004784	62
1465	15602	0.2070004784	61
1465	15602	0.2070004784	60
1465	15602	0.2070004784	59
1465	15602	0.2070004784	58
1465	15602	0.2070004784	57
1465	15602	0.2070004784	56
1465	15602	0.2070004784	55
1465	15602	0.2070004784	54
1465	15602	0.2070004784	53
1465	15602	0.2070004784	52
1465	15602	0.2070004784	51
1465	15602	0.2070004784	50
1465	15602	0.2070004784	49
1465	15602	0.2070004784	48
1465	15602	0.2070004784	47
1465	15602	0.2070004784	46
1465	15602	0.2070004784	45
1465	15602	0.2070004784	44
1465	15602	0.2070004784	43
1465	15602	0.2070004784	42
1465	15602	0.2070004784	41
1465	15602	0.2070004784	40
1465	15602	0.2070004784	39
1465	15602	0.2070004784	38
1465	15602	0.2070004784	37
1465	15602	0.2070004784	36
1465	15602	0.2070004784	35
1465	15602	0.2070004784	34
1465	15602	0.2070004784	33
1465	15602	0.2070004784	32
1465	15602	0.2070004784	31
1465	15602	0.2070004784	30
1465	15602	0.2070004784	29
1465	15602	0.2070004784	28
1465	15602	0.2070004784	27
1465	15602	0.2070004784	26
1465	15602	0.2070004784	25
[...]
948	21211	0.279	0
948	21318	0.281	0
948	21575	0.284	0
948	21682	0.286	0
948	21872	0.289	0
948	22046	0.291	0
948	22211	0.294	0
948	22410	0.296	0
948	22550	0.299	0
948	22727	0.301	0
948	22934	0.304	0
948	23066	0.306	0
948	23298	0.309	0
948	23405	0.311	0
948	23662	0.314	0
948	23769	0.316	0
948	23959	0.319	0
948	24133	0.321	0
948	24298	0.324	0
948	24497	0.326	0
948	24637	0.329	0
948	24794	0.331	0
948	25001	0.334	0
948	25133	0.336	0
948	25365	0.339	0
948	25472	0.341	0
948	25729	0.344	0
948	25836	0.346	0
948	26026	0.349	0
948	26200	0.351	0
948	26365	0.354	0
948	26564	0.356	0
948	26704	0.359	0
948	26861	0.361	0
948	27068	0.364	0
948	27200	0.366	0
948	27432	0.369	0
948	27539	0.371	0
948	27796	0.374	0
948	27903	0.376	0
948	28093	0.379	0
948	28267	0.381	0
948	28432	0.384	0
948	28631	0.386	0
948	28771	0.389	0
948	28928	0.391	0
948	29135	0.394	0
948	29267	0.396	0
948	29499	0.399	0
948	29626	0.401	0
948	29883	0.404	0
948	29990	0.406	0
948	30188	0.409	0
948	30362	0.411	0
948	30527	0.414	0
948	30726	0.416	0
948	30866	0.419	0
948	31023	0.421	0
948	31230	0.424	0
948	31362	0.426	0
948	31594	0.429	0
948	31701	0.431	0
948	31958	0.434	0
948	32065	0.436	0
948	32255	0.439	0
948	32429	0.441	0
948	32594	0.444	0
948	32793	0.446	0
948	32933	0.449	0
948	33090	0.451	0
948	33297	0.454	0
948	33429	0.456	0
948	33669	0.459	0
948	33776	0.461	0
948	34033	0.464	0
948	34140	0.466	0
948	34330	0.469	0
948	34504	0.471	0
948	34669	0.474	0
948	34868	0.476	0
948	35008	0.479	0
948	35165	0.481	0
948	35372	0.484	0
948	35504	0.486	0
948	35736	0.489	0
948	35843	0.491	0
948	36100	0.494	0
948	36207	0.496	0
948	36397	0.499	0
948	36591	0.501	0
948	36756	0.504	0
948	36955	0.506	0
948	37095	0.509	0
948	37252	0.511	0
948	37459	0.514	0
948	37591	0.516	0
948	37823	0.519	0
948	37930	0.521	0
948	38187	0.524	0
948	38294	0.526	0
948	38484	0.529	0
948	38658	0.531	0
948	38823	0.534	0
948	39022	0.536	0
948	39162	0.539	0
948	39319	0.541	0
948	39526	0.544	0
948	39658	0.546	0
948	39890	0.549	0
948	39997	0.551	0
948	40254	0.554	0
948	40361	0.556	0
948	40551	0.559	0
948	40725	0.561	0
948	40890	0.564	0
948	41089	0.566	0
948	41229	0.569	0
948	41386	0.571	0
948	41593	0.574	0
948	41725	0.576	0
948	41957	0.579	0
948	42064	0.581	0
948	42321	0.584	0
948	42428	0.586	0
948	42618	0.589	0
948	42792	0.591	0
948	42957	0.594	0
948	43156	0.596	0
948	43296	0.599	0
948	43473	0.601	0
948	43680	0.604	0
948	43812	0.606	0
948	44044	0.609	0
948	44151	0.611	0
948	44408	0.614	0
948	44515	0.616	0
948	44705	0.619	0
948	44879	0.621	0
948	45044	0.624	0
948	45243	0.626	0
948	45383	0.629	0
948	45540	0.631	0
948	45747	0.634	0
948	45879	0.636	0
948	46111	0.639	0
948	46218	0.641	0
948	46475	0.644	0
948	46582	0.646	0
948	46772	0.649	0
948	46946	0.651	0
948	47111	0.654	0
948	47310	0.656	0
948	47450	0.659	0
948	47607	0.661	0
948	47814	0.664	0
948	47946	0.666	0
948	48178	0.669	0
948	48285	0.671	0
948	48542	0.674	0
948	48649	0.676	0
948	48839	0.679	0
948	49013	0.681	0
948	49178	0.684	0
948	49377	0.686	0
948	49517	0.689	0
948	49674	0.691	0
948	49881	0.694	0
948	50013	0.696	0
948	50245	0.699	0
948	50372	0.701	0
948	50629	0.704	0
948	50736	0.706	0
948	50926	0.709	0
948	51100	0.711	0
948	51265	0.714	0
948	51464	0.716	0
948	51604	0.719	0
948	51761	0.721	0
948	51968	0.724	0
948	52100	0.726	0
948	52332	0.729	0
948	52439	0.731	0
948	52696	0.734	0
948	52803	0.736	0
948	52993	0.739	0
948	53167	0.741	0
948	53332	0.744	0
948	53531	0.746	0
948	53671	0.749	0
948	53828	0.751	0
948	54035	0.754	0
948	54167	0.756	0
948	54399	0.759	0
948	54506	0.761	0
948	54763	0.764	0
948	54870	0.766	0
948	55060	0.769	0
948	55234	0.771	0
948	55399	0.774	0
948	55598	0.776	0
948	55738	0.779	0
948	55895	0.781	0
948	56102	0.784	0
948	56234	0.786	0
948	56466	0.789	0
948	56573	0.791	0
948	56830	0.794	0
948	56937	0.796	0
948	57127	0.799	0
948	57321	0.801	0
948	57486	0.804	0
948	57685	0.806	0
948	57825	0.809	0
948	57982	0.811	0
948	58189	0.814	0
948	58321	0.816	0
948	58553	0.819	0
948	58660	0.821	0
948	58917	0.824	0
948	59024	0.826	0
948	59214	0.829	0
948	59388	0.831	0
948	59553	0.834	0
948	59752	0.836	0
948	59892	0.839	0
948	60049	0.841	0
948	60256	0.844	0
948	60388	0.846	0
948	60620	0.849	0
948	60727	0.851	0
948	60984	0.854	0
948	61091	0.856	0
948	61281	0.859	0
948	61455	0.861	0
948	61620	0.864	0
948	61819	0.866	0
948	61959	0.869	0
948	62116	0.871	0
948	62323	0.874	0
948	62455	0.876	0
948	62687	0.879	0
948	62794	0.881	0
948	63051	0.884	0
948	63158	0.886	0
948	63348	0.889	0
948	63522	0.891	0
948	63687	0.894	0
948	63886	0.896	0
948	64026	0.899	0
948	64203	0.901	0
948	64410	0.904	0
948	64542	0.906	0
948	64774	0.909	0
948	64881	0.911	0
948	65138	0.914	0
948	65245	0.916	0
948	65435	0.919	0
948	65609	0.921	0
948	65774	0.924	0
948	65973	0.926	0
948	66113	0.929	0
948	66270	0.931	0
948	66477	0.934	0
948	66609	0.936	0
948	66841	0.939	0
948	66948	0.941	0
948	67205	0.944	0
948	67312	0.946	0
948	67502	0.949	0
948	67676	0.951	0
948	67841	0.954	0
948	68040	0.956	0
948	68180	0.959	0
948	68337	0.961	0
948	68544	0.964	0
948	68676	0.966	0
948	68908	0.969	0
948	69015	0.971	0
948	69272	0.974	0
948	69379	0.976	0
948	69569	0.979	0
948	69743	0.981	0
948	69908	0.984	0
948	70107	0.986	0
948	70247	0.989	0
948	70404	0.991	0
948	70611	0.994	0
948	70744	0.996	0
948	70976	0.999	0
948	71102	1.001	0
948	71359	1.004	0
948	71466	1.006	0
948	71656	1.009	0
948	71830	1.011	0
948	71995	1.014	0
948	72194	1.016	0
948	72334	1.019	0
948	72491	1.021	0
948	72698	1.024	0
948	72830	1.026	0
948	73062	1.029	0
948	73169	1.031	0
948	73426	1.034	0
948	73533	1.036	0
948	73723	1.039	0
948	73897	1.041	0
948	74062	1.044	0
948	74261	1.046	0
948	74401	1.049	0
948	74558	1.051	0
948	74765	1.054	0
948	74897	1.056	0
948	75129	1.059	0
948	75236	1.061	0
948	75493	1.064	0
948	75600	1.066	0
948	75790	1.069	0
948	75964	1.071	0
948	76129	1.074	0
948	76328	1.076	0
948	76468	1.079	0
948	76625	1.081	0
948	76832	1.084	0
948	76964	1.086	0
948	77196	1.089	0
948	77303	1.091	0
948	77560	1.094	0
948	77668	1.096	0
948	77858	1.099	0
948	78051	1.101	0
948	78216	1.104	0
948	78415	1.106	0
948	78555	1.109	0
948	78712	1.111	0
948	78919	1.114	0
948	79051	1.116	0
948	79283	1.119	0
948	79390	1.121	0
948	79647	1.124	0
948	79754	1.126	0
948	79944	1.129	0
948	80118	1.131	0
948	80283	1.134	0
948	80482	1.136	0
948	80622	1.139	0
948	80779	1.141	0
948	80986	1.144	0
948	81118	1.146	0
948	81350	1.149	0
948	81457	1.151	0
948	81714	1.154	0
948	81821	1.156	0
948	82011	1.159	0
948	82185	1.161	0
948	82350	1.164	0
948	82549	1.166	0
948	82689	1.169	0
948	82846	1.171	0
948	83053	1.174	0
948	83185	1.176	0
948	83417	1.179	0
948	83524	1.181	0
948	83781	1.184	0
948	83888	1.186	0
948	84078	1.189	0
948	84252	1.191	0
948	84417	1.194	0
948	84617	1.196	0
948	84757	1.199	0
948	84933	1.201	0
948	85140	1.204	0
948	85272	1.206	0
948	85505	1.209	0
948	85612	1.211	0
948	85869	1.214	0
948	85976	1.216	0
948	86166	1.219	0
948	86340	1.221	0
948	86505	1.224	0
948	86704	1.226	0
948	86844	1.229	0
948	87001	1.231	0
948	87208	1.234	0
948	87340	1.236	0
948	87572	1.239	0
948	87679	1.241	0
948	87936	1.244	0
948	88043	1.246	0
948	88233	1.249	0
948	88407	1.251	0
948	88572	1.254	0
948	88771	1.256	0
948	88912	1.259	0
948	89069	1.261	0
948	89276	1.264	0
948	89408	1.266	0
948	89640	1.269	0
948	89747	1.271	0
948	90004	1.274	0
948	90111	1.276	0
948	90301	1.279	0
948	90475	1.281	0
948	90640	1.284	0
948	90839	1.286	0
948	90979	1.289	0
948	91136	1.291	0
948	91343	1.294	0
948	91476	1.296	0
948	91708	1.299	0
948	91834	1.301	0
948	92091	1.304	0
948	92198	1.306	0
948	92388	1.309	0
948	92562	1.311	0
948	92727	1.314	0
948	92926	1.316	0
948	93066	1.319	0
948	93223	1.321	0
948	93430	1.324	0
948	93562	1.326	0
948	93794	1.329	0
948	93901	1.331	0
948	94158	1.334	0
948	94265	1.336	0
948	94455	1.339	0
948	94629	1.341	0
948	94794	1.344	0
948	94993	1.346	0
948	95133	1.349	0
948	95290	1.351	0
948	95497	1.354	0
948	95629	1.356	0
948	95861	1.359	0
948	95968	1.361	0
948	96225	1.364	0
948	96332	1.366	0
948	96522	1.369	0
948	96696	1.371	0
948	96861	1.374	0
948	97060	1.376	0
948	97200	1.379	0
948	97357	1.381	0
948	97564	1.384	0
948	97696	1.386	0
948	97928	1.389	0
948	98035	1.391	0
948	98292	1.394	0
948	98400	1.396	0
948	98590	1.399	0
948	98783	1.401	0
948	98948	1.404	0
948	99147	1.406	0
948	99287	1.409	0
948	99444	1.411	0
948	99651	1.414	0
948	99783	1.416	0
948	100015	1.419	0
948	100122	1.421	0
948	100379	1.424	0
948	100486	1.426	0
948	100676	1.429	0
948	100850	1.431	0
948	101015	1.434	0
948	101214	1.436	0
948	101354	1.439	0
948	101511	1.441	0
948	101718	1.444	0
948	101850	1.446	0
948	102082	1.449	0
948	102189	1.451	0
948	102446	1.454	0
948	102553	1.456	0
948	102743	1.459	0
948	102917	1.461	0
948	103082	1.464	0
948	103281	1.466	0
948	103421	1.469	0
948	103578	1.471	0
948	103785	1.474	0
948	103917	1.476	0
948	104149	1.479	0
948	104256	1.481	0
948	104513	1.484	0
948	104620	1.486	0
948	104810	1.489	0
948	104984	1.491	0
948	105149	1.494	0
948	105349	1.496	0
948	105489	1.499	0
948	105665	1.501	0
948	105872	1.504	0
948	106004	1.506	0
948	106236	1.509	0
948	106343	1.511	0
948	106600	1.514	0
948	106707	1.516	0
948	106897	1.519	0
948	107071	1.521	0
948	107236	1.524	0
948	107435	1.526	0
948	107575	1.529	0
948	107732	1.531	0
948	107939	1.534	0
948	108071	1.536	0
948	108303	1.539	0
948	108410	1.541	0
948	108667	1.544	0
948	108774	1.546	0
948	108964	1.549	0
948	109138	1.551	0
948	109303	1.554	0
948	109502	1.556	0
948	109642	1.559	0
948	109799	1.561	0
948	110006	1.564	0
948	110138	1.566	0
948	110370	1.569	0
948	110477	1.571	0
948	110734	1.574	0
948	110841	1.576	0
948	111031	1.579	0
948	111205	1.581	0
948	111370	1.584	0
948	111569	1.586	0
948	111709	1.589	0
948	111866	1.591	0
948	112073	1.594	0
948	112206	1.596	0
948	112438	1.599	0
948	112564	1.601	0
948	112821	1.604	0
948	112928	1.606	0
948	113118	1.609	0
948	113292	1.611	0
948	113457	1.614	0
948	113656	1.616	0
948	113796	1.619	0
948	113953	1.621	0
948	114160	1.624	0
948	114292	1.626	0
948	114524	1.629	0
948	114631	1.631	0
948	114888	1.634	0
948	114995	1.636	0
948	115185	1.639	0
948	115359	1.641	0
948	115524	1.644	0
948	115723	1.646	0
948	115863	1.649	0
948	116020	1.651	0
948	116227	1.654	0
948	116359	1.656	0
948	116591	1.659	0
948	116698	1.661	0
948	116955	1.664	0
948	117062	1.666	0
948	117252	1.669	0
948	117426	1.671	0
948	117591	1.674	0
948	117790	1.676	0
948	117930	1.679	0
948	118087	1.681	0
948	118294	1.684	0
948	118426	1.686	0
948	118658	1.689	0
948	118765	1.691	0
948	119022	1.694	0
948	119130	1.696	0
948	119320	1.699	0
948	119513	1.701	0
948	119678	1.704	0
948	119877	1.706	0
948	120017	1.709	0
948	120174	1.711	0
948	120381	1.714	0
948	120513	1.716	0
948	120745	1.719	0
948	120852	1.721	0
948	121109	1.724	0
948	121216	1.726	0
948	121406	1.729	0
948	121580	1.731	0
948	121745	1.734	0
948	121944	1.736	0
948	122084	1.739	0
948	122241	1.741	0
948	122448	1.744	0
948	122580	1.746	0
948	122812	1.749	0
948	122919	1.751	0
948	123176	1.754	0
948	123283	1.756	0
948	123473	1.759	0
948	123647	1.761	0
948	123812	1.764	0
948	124011	1.766	0
948	124151	1.769	0
948	124308	1.771	0
948	124515	1.774	0
948	124647	1.776	0
948	124879	1.779	0
948	124986	1.781	0
948	125243	1.784	0
948	125350	1.786	0
948	125540	1.789	0
948	125714	1.791	0
948	125879	1.794	0
948	126079	1.796	0
948	126219	1.799	0
948	126395	1.801	0
948	126602	1.804	0
948	126734	1.806	0
948	126966	1.809	0
948	127073	1.811	0
948	127330	1.814	0
948	127437	1.816	0
948	127627	1.819	0
948	127801	1.821	0
948	127966	1.824	0
948	128165	1.826	0
948	128305	1.829	0
948	128462	1.831	0
948	128669	1.834	0
948	128801	1.836	0
948	129033	1.839	0
948	129140	1.841	0
948	129397	1.844	0
948	129504	1.846	0
948	129694	1.849	0
948	129868	1.851	0
948	130033	1.854	0
948	130232	1.856	0
948	130372	1.859	0
948	130529	1.861	0
948	130736	1.864	0
948	130868	1.866	0
948	131100	1.869	0
948	131207	1.871	0
948	131464	1.874	0
948	131571	1.876	0
948	131761	1.879	0
948	131935	1.881	0
948	132100	1.884	0
948	132299	1.886	0
948	132439	1.889	0
948	132596	1.891	0
948	132803	1.894	0
948	132936	1.896	0
948	133168	1.899	0
948	133294	1.901	0
948	133551	1.904	0
948	133658	1.906	0
948	133848	1.909	0
948	134022	1.911	0
948	134187	1.914	0
948	134386	1.916	0
948	134526	1.919	0
948	134683	1.921	0
948	134890	1.924	0
948	135022	1.926	0
948	135254	1.929	0
948	135361	1.931	0
948	135618	1.934	0
948	135725	1.936	0
948	135915	1.939	0
948	136089	1.941	0
948	136254	1.944	0
948	136453	1.946	0
948	136593	1.949	0
948	136750	1.951	0
948	136957	1.954	0
948	137089	1.956	0
948	137321	1.959	0
948	137428	1.961	0
948	137685	1.964	0
948	137792	1.966	0
948	137982	1.969	0
948	138156	1.971	0
948	138321	1.974	0
948	138520	1.976	0
948	138660	1.979	0
948	138817	1.981	0
948	139024	1.984	0
948	139156	1.986	0
948	139388	1.989	0
948	139495	1.991	0
948	139752	1.994	0
948	139860	1.996	0
948	140050	1.999	0
948	140243	2.001	0
948	140408	2.004	0
948	140607	2.006	0
948	140747	2.009	0
948	140904	2.011	0
948	141111	2.014	0
948	141243	2.016	0
948	141475	2.019	0
948	141582	2.021	0
948	141839	2.024	0
948	141946	2.026	0
948	142136	2.029	0
948	142310	2.031	0
948	142475	2.034	0
948	142674	2.036	0
948	142814	2.039	0
948	142971	2.041	0
948	143178	2.044	0
948	143310	2.046	0
948	143542	2.049	0
948	143649	2.051	0
948	143906	2.054	0
948	144013	2.056	0
948	144203	2.059	0
948	144377	2.061	0
948	144542	2.064	0
948	144741	2.066	0
948	144881	2.069	0
948	145038	2.071	0
948	145245	2.074	0
948	145377	2.076	0
948	145609	2.079	0
948	145716	2.081	0
948	145973	2.084	0
948	146080	2.086	0
948	146270	2.089	0
948	146444	2.091	0
948	146609	2.094	0
948	146809	2.096	0
948	146949	2.099	0
948	147125	2.101	0
948	147332	2.104	0
948	147464	2.106	0
948	147696	2.109	0
948	147803	2.111	0
948	148060	2.114	0
948	148167	2.116	0
948	148357	2.119	0
948	148531	2.121	0
948	148696	2.124	0
948	148895	2.126	0
948	149035	2.129	0
948	149192	2.131	0
948	149399	2.134	0
948	149531	2.136	0
948	149763	2.139	0
948	149870	2.141	0
948	150127	2.144	0
948	150234	2.146	0
948	150424	2.149	0
948	150598	2.151	0
948	150763	2.154	0
948	150962	2.156	0
948	151102	2.159	0
948	151259	2.161	0
948	151466	2.164	0
948	151598	2.166	0
948	151830	2.169	0
948	151937	2.171	0
948	152194	2.174	0
948	152301	2.176	0
948	152491	2.179	0
948	152665	2.181	0
948	152830	2.184	0
948	153029	2.186	0
948	153169	2.189	0
948	153326	2.191	0
948	153533	2.194	0
948	153666	2.196	0
948	153898	2.199	0
948	154024	2.201	0
948	154281	2.204	0
948	154388	2.206	0
948	154578	2.209	0
948	154752	2.211	0
948	154917	2.214	0
948	155116	2.216	0
948	155256	2.219	0
948	155413	2.221	0
948	155620	2.224	0
948	155752	2.226	0
948	155984	2.229	0
948	156091	2.231	0
948	156348	2.234	0
948	156455	2.236	0
948	156645	2.239	0
948	156819	2.241	0
948	156984	2.244	0
948	157183	2.246	0
948	157323	2.249	0
948	157480	2.251	0
948	157687	2.254	0
948	157819	2.256	0
948	158051	2.259	0
948	158158	2.261	0
948	158415	2.264	0
948	158522	2.266	0
948	158712	2.269	0
948	158886	2.271	0
948	159051	2.274	0
948	159250	2.276	0
948	159390	2.279	0
948	159547	2.281	0
948	159754	2.284	0
948	159886	2.286	0
948	160118	2.289	0
948	160225	2.291	0
948	160482	2.294	0
948	160590	2.296	0
948	160780	2.299	0
948	160973	2.301	0
948	161138	2.304	0
948	161337	2.306	0
948	161477	2.309	0
948	161634	2.311	0
948	161841	2.314	0
948	161973	2.316	0
948	162205	2.319	0
948	162312	2.321	0
948	162569	2.324	0
948	162676	2.326	0
948	162866	2.329	0
948	163040	2.331	0
948	163205	2.334	0
948	163404	2.336	0
948	163544	2.339	0
948	163701	2.341	0
948	163908	2.344	0
948	164040	2.346	0
948	164272	2.349	0
948	164379	2.351	0
948	164636	2.354	0
948	164743	2.356	0
948	164933	2.359	0
948	165107	2.361	0
948	165272	2.364	0
948	165471	2.366	0
948	165611	2.369	0
948	165768	2.371	0
948	165975	2.374	0
948	166107	2.376	0
948	166339	2.379	0
948	166446	2.381	0
948	166703	2.384	0
948	166810	2.386	0
948	167000	2.389	0
948	167174	2.391	0
948	167339	2.394	0
948	167539	2.396	0
948	167679	2.399	0
948	167855	2.401	0
948	168062	2.404	0
948	168194	2.406	0
948	168426	2.409	0
948	168533	2.411	0
948	168790	2.414	0
948	168897	2.416	0
948	169087	2.419	0
948	169261	2.421	0
948	169426	2.424	0
952	3837	0.051	1
952	4322	0.056	2
952	4778	0.061	3
952	5245	0.066	4
952	5631	0.07	5
952	5692	0.071	6
952	6142	0.076	7
952	6565	0.081	8
952	6926	0.086	9
967	0	0	1
973	2954	0.041518176082	44
976	2954	0.041518176082	45
977	2957	0.041518176082	45
978	1652	0.023	0
978	2016	0.028	0
978	2019	0.028	0
978	2372	0.033	0
978	2375	0.033	0
978	2556	0.036	0
978	2762	0.038	0
978	2765	0.038	0
978	2938	0.041	0
978	3035	0.042	0
978	3132	0.043	0
978	3135	0.043	0
978	3374	0.046	0
978	3441	0.047	0
978	3528	0.048	0
978	3531	0.048	0
978	3825	0.051	0
978	3905	0.052	0
978	3980	0.053	0
978	3986	0.053	0
978	4307	0.056	0
978	4409	0.057	0
978	5005	0.063	0
980	1652	0.023	0
980	2016	0.028	0
980	2019	0.028	0
980	2372	0.033	0
980	2375	0.033	0
980	2556	0.036	0
980	2762	0.038	0
980	2765	0.038	0
980	2938	0.041	0
980	3019	0.042	0
980	3035	0.042	0
980	3132	0.043	0
980	3135	0.043	0
980	3374	0.046	0
980	3422	0.047	0
980	3441	0.047	0
980	3528	0.048	0
980	3531	0.048	0
980	3825	0.051	0
980	3891	0.052	0
980	3905	0.052	0
980	3980	0.053	0
980	3986	0.053	0
980	4307	0.056	0
980	4409	0.057	0
980	5005	0.063	0
986	3019	0.042	1
986	3422	0.047	2
986	3891	0.052	3
999	0	0	1
999	4334	0.057	2
999	4941	0.063	2
999	5501	0.069	2
999	6011	0.075	2
999	6494	0.081	2
999	6944	0.087	2
999	7405	0.093	2
999	7897	0.099	2
999	8419	0.105	2
1479	994	0.012270864309	7504
1480	994	0.012270864309	7504
1482	994	0.012270864309	0
1493	994	0.012270864309	0
1503	1081	0.013169782835	7504
1504	1081	0.013169782835	7504
1506	1081	0.013169782835	0
1517	1081	0.013169782835	0
1527	1089	0.013528948517	7504
1528	1089	0.013528948517	7504
1530	1089	0.013528948517	0
1541	1089	0.013528948517	0
1551	1569	0.021843716542	7504
1552	1569	0.021843716542	7504
1554	1569	0.021843716542	0
1565	1569	0.021843716542	0
1575	1718	0.024352218178	7504
1576	1718	0.024352218178	7504
1578	1718	0.024352218178	0
1589	1718	0.024352218178	0
1599	1814	0.025271030879	7504
1600	1814	0.025271030879	7504
1602	1814	0.025271030879	0
1613	1814	0.025271030879	0
1623	1927	0.026259455872	7504
1624	1927	0.026259455872	7504
1626	1927	0.026259455872	0
1637	1927	0.026259455872	0
1647	2334	0.032546852513	7504
1648	2334	0.032546852513	7504
1650	2334	0.032546852513	0
1661	2334	0.032546852513	0
1671	2428	0.034129833705	7504
1672	2428	0.034129833705	7504
1674	2428	0.034129833705	0
1685	2428	0.034129833705	0
1695	2436	0.034439526021	7504
1696	2436	0.034439526021	7504
1698	2436	0.034439526021	0
1709	2436	0.034439526021	0
1719	2672	0.037261432968	7504
1720	2672	0.037261432968	7504
1722	2672	0.037261432968	0
1733	2672	0.037261432968	0
1743	2885	0.040466304503	7504
1744	2885	0.040466304503	7504
1746	2885	0.040466304503	0
1757	2885	0.040466304503	0
1767	2951	0.041518176082	7504
1768	2951	0.041518176082	7504
1770	2951	0.041518176082	0
1781	2951	0.041518176082	0
1791	3458	0.047532676856	7504
1792	3458	0.047532676856	7504
1794	3458	0.047532676856	0
1805	3458	0.047532676856	0
1815	3557	0.048413756283	7504
1816	3557	0.048413756283	7504
1818	3557	0.048413756283	0
1829	3557	0.048413756283	0
1839	3843	0.051566809383	7504
1840	3843	0.051566809383	7504
1842	3843	0.051566809383	0
1853	3843	0.051566809383	0
1863	3924	0.05273845314	7504
1864	3924	0.05273845314	7504
1866	3924	0.05273845314	0
1877	3924	0.05273845314	0
1887	3932	0.052847558425	7504
1888	3932	0.052847558425	7504
1890	3932	0.052847558425	0
1901	3932	0.052847558425	0
1911	4492	0.057084039294	7504
1912	4492	0.057084039294	7504
1914	4492	0.057084039294	0
1925	4492	0.057084039294	0
1935	4780	0.061955560849	7504
1936	4780	0.061955560849	7504
1938	4780	0.061955560849	0
1949	4780	0.061955560849	0
1959	4788	0.061974657003	7504
1960	4788	0.061974657003	7504
1962	4788	0.061974657003	0
1973	4788	0.061974657003	0
1983	5085	0.064453871725	7504
1984	5085	0.064453871725	7504
1986	5085	0.064453871725	0
1997	5085	0.064453871725	0
2007	6088	0.075361895796	7504
2008	6088	0.075361895796	7504
2010	6088	0.075361895796	0
2021	6088	0.075361895796	0
2031	6930	0.086746254247	7504
2032	6930	0.086746254247	7504
2034	6930	0.086746254247	0
2045	6930	0.086746254247	0
2055	7271	0.091364573385	7504
2056	7271	0.091364573385	7504
2058	7271	0.091364573385	0
2069	7271	0.091364573385	0
