file 189151 1580831252                                          
version 2
run CAIN-352-20200204-12:46:30-12208
attr configname CAIN
attr datetime 20200204-12:46:30
attr dist 250
attr experiment CAIN
attr inifile omnetpp.ini
attr iterationvars "$dist=250, $mob=\"./movements/RWPRPGM-0.0.movements\""
attr iterationvars2 "$dist=250, $mob=\"./movements/RWPRPGM-0.0.movements\", $repetition=2"
attr measurement "$dist=250, $mob=\"./movements/RWPRPGM-0.0.movements\""
attr mob "\"./movements/RWPRPGM-0.0.movements\""
attr network lte.simulations.networks.CAIN
attr processid 12208
attr repetition 2
attr replication #2
attr resultdir results
attr runnumber 352
attr seedset 2
param **.**.amcMode "\"AUTO\""
param **.amcMode "\"D2D\""
param **.cainNetwork true
param **.channelControl.alpha 1.0
param **.channelControl.carrierFrequency 2100e+6Hz
param **.channelControl.pMax 10W
param **.d2dCqi 7
param **.deployer.numRbDl 50
param **.deployer.numRbUl 50
param **.distThresh "${dist=200..260 step 10}"
param **.fbDelay 1
param **.feedbackComputation "xmldoc(\"config_channel.xml\")"
param **.mobility.constraintAreaMaxX 1000m
param **.mobility.constraintAreaMaxY 1000m
param **.mobility.constraintAreaMaxZ 0m
param **.mobility.constraintAreaMinX 0m
param **.mobility.constraintAreaMinY 0m
param **.mobility.constraintAreaMinZ 0m
param **.nic.phy.channelModel "xmldoc(\"config_channel.xml\")"
param **.numBands 50
param **.pwrThresh -10
param **.qtdThresh 3
param **.rbAllocationType "\"localized\""
param **.routingRecorder.enabled false
param **.tcpApp[*].tClose -1s
param **.ueD2DTx[*].mobility.changeAngleBy "normal(0deg, 30deg)"
param **.ueD2DTx[*].mobility.changeInterval "normal(5s, 0.1s)"
param **.ueD2DTx[*].mobility.nodeId -1
param **.ueD2DTx[*].mobility.speed "normal(2mps, 0.01mps)"
param **.ueD2DTx[*].mobility.traceFile "${mob=\"./movements/RWPRPGM-0.0.movements\",\"./movements/RWPRPGM-0.5.movements\"}"
param **.ueD2DTx[*].mobilityType "\"BonnMotionMobility\""
param **.usePreconfiguredTxParams false
param *.eNodeB.d2dCapable false
param *.eNodeB.mobility.initFromDisplayString false
param *.eNodeB.mobility.initialX 300m
param *.eNodeB.mobility.initialY 300m
param *.eNodeB.nic.phy.enableD2DCqiReporting true
param *.eNodeB.txPower 19952.62315mw
param *.numUeCell 0
param *.numUeD2DRx 1
param *.numUeD2DTx 1
param *.ue*.macCellId 1
param *.ue*.masterId 1
param *.ue*.mobility.initFromDisplayString false
param *.ue*[0].macCellId 1
param *.ue*[0].masterId 1
param *.ue*[0].mobility.initFromDisplayString false
param *.ueD2D*.numTcpApps 1
param *.ueD2D*[*].d2dCapable true
param *.ueD2D*[0].d2dCapable false
param *.ueD2D*[0].numTcpApps 1
param *.ueD2DRx[0].mobility.initialX 310m
param *.ueD2DRx[0].mobility.initialY 350m
param *.ueD2DRx[0].tcpApp[*].localPort 1000
param *.ueD2DRx[0].tcpApp[*].typename "\"TCPSinkApp\""
param *.ueD2DTx*.tcpApp[*].connectAddress "\"ueD2DTx[0]\""
param *.ueD2DTx*.tcpApp[*].localAddress "\"ueD2DTx\""
param *.ueD2DTx*.tcpApp[*].localPort 1000
param *.ueD2DTx*.tcpApp[*].sendBytes 1GiB
param *.ueD2DTx*.tcpApp[*].typename "\"TCPSessionApp\""
param *.ueD2DTx*.tcpApp[0].active true
param *.ueD2DTx*.tcpApp[0].connectPort 1000
param *.ueD2DTx*.tcpApp[0].tOpen uniform(0.010s,0.1s)
param *.ueD2DTx*.tcpApp[0].tSend uniform(0.15s,0.5s)
param *.ueD2DTx[0].mobility.initialX 290m
param *.ueD2DTx[0].mobility.initialY 350m
param *.ueD2DTx[0].nic.d2dPeerAddresses "\"ueD2DTx[1]\""
param *.ueD2DTx[0].tcpApp[*].localPort 1000
param *.ueD2DTx[0].tcpApp[*].sendBytes 1GiB
param *.ueD2DTx[0].tcpApp[*].typename "\"TCPSessionApp\""
param *.ueD2DTx[0].tcpApp[0].active true
param *.ueD2DTx[0].tcpApp[0].connectAddress "\"ueD2DRx[0]\""
param *.ueD2DTx[0].tcpApp[0].connectPort 1000
param *.ueD2DTx[0].tcpApp[0].localAddress "\"ueD2DTx[0]\""
param *.ueD2DTx[0].tcpApp[0].tOpen uniform(0.010s,0.1s)
param *.ueD2DTx[0].tcpApp[0].tSend uniform(0.15s,0.5s)
param *.ueD2DTx[1].nic.d2dPeerAddresses "\"ueD2DTx[0]\""

vector 8  CAIN.server.ppp[0].queue  queueLength:vector  ETV
attr interpolationmode  sample-hold
attr title  "queue length, vector"
vector 9  CAIN.server.ppp[0].ppp  txState:vector  ETV
attr interpolationmode  sample-hold
attr title  "tx state, vector"
vector 24  CAIN.router.ppp[0].queue  queueLength:vector  ETV
attr interpolationmode  sample-hold
attr title  "queue length, vector"
vector 25  CAIN.router.ppp[0].ppp  txState:vector  ETV
attr interpolationmode  sample-hold
attr title  "tx state, vector"
vector 35  CAIN.router.ppp[1].queue  queueLength:vector  ETV
attr interpolationmode  sample-hold
attr title  "queue length, vector"
vector 36  CAIN.router.ppp[1].ppp  txState:vector  ETV
attr interpolationmode  sample-hold
attr title  "tx state, vector"
vector 56  CAIN.pgw.ppp[0].queue  queueLength:vector  ETV
attr interpolationmode  sample-hold
attr title  "queue length, vector"
vector 57  CAIN.pgw.ppp[0].ppp  txState:vector  ETV
attr interpolationmode  sample-hold
attr title  "tx state, vector"
vector 67  CAIN.pgw.pppInterface.queue  queueLength:vector  ETV
attr interpolationmode  sample-hold
attr title  "queue length, vector"
vector 68  CAIN.pgw.pppInterface.ppp  txState:vector  ETV
attr interpolationmode  sample-hold
attr title  "tx state, vector"
vector 104  CAIN.eNodeB.pppIf.queue  queueLength:vector  ETV
attr interpolationmode  sample-hold
attr title  "queue length, vector"
vector 105  CAIN.eNodeB.pppIf.ppp  txState:vector  ETV
attr interpolationmode  sample-hold
attr title  "tx state, vector"
vector 138  CAIN.ueD2DTx[0].nic.phy  servingCell:vector  ETV
attr source  servingCell
attr title  "ID of the serving eNodeB for the UE, vector"
attr unit  ""
vector 165  CAIN.ueD2DTx[1].nic.phy  servingCell:vector  ETV
attr source  servingCell
attr title  "ID of the serving eNodeB for the UE, vector"
attr unit  ""
vector 192  CAIN.ueD2DTx[2].nic.phy  servingCell:vector  ETV
attr source  servingCell
attr title  "ID of the serving eNodeB for the UE, vector"
attr unit  ""
vector 219  CAIN.ueD2DTx[3].nic.phy  servingCell:vector  ETV
attr source  servingCell
attr title  "ID of the serving eNodeB for the UE, vector"
attr unit  ""
vector 246  CAIN.ueD2DTx[4].nic.phy  servingCell:vector  ETV
attr source  servingCell
attr title  "ID of the serving eNodeB for the UE, vector"
attr unit  ""
vector 85  CAIN.eNodeB.nic.mac  receivedPacketFromLowerLayer:vector(packetBytes)  ETV
attr interpolationmode  none
attr source  receivedPacketFromLowerLayer
vector 264  CAIN.ueD2DTx[3].tcp  tcpRcvQueueBytes  ETV
vector 251  CAIN.ueD2DTx[3].tcp  "advertised window"  ETV
vector 250  CAIN.ueD2DTx[3].tcp  "receive window"  ETV
vector 253  CAIN.ueD2DTx[3].tcp  "sent ack"  ETV
vector 198  CAIN.ueD2DTx[3].nic.pdcpRrc  receivedPacketFromUpperLayer:vector(packetBytes)  ETV
attr interpolationmode  none
attr source  receivedPacketFromUpperLayer
vector 201  CAIN.ueD2DTx[3].nic.pdcpRrc  sentPacketToLowerLayer:vector(packetBytes)  ETV
attr interpolationmode  none
attr source  sentPacketToLowerLayer
vector 202  CAIN.ueD2DTx[3].nic.mac  receivedPacketFromUpperLayer:vector(packetBytes)  ETV
attr interpolationmode  none
attr source  receivedPacketFromUpperLayer
vector 205  CAIN.ueD2DTx[3].nic.mac  sentPacketToLowerLayer:vector(packetBytes)  ETV
attr interpolationmode  none
attr source  sentPacketToLowerLayer
vector 96  CAIN.eNodeB.nic.mac  racpkt:vector  ETV
attr interpolationmode  none
attr title  "eNB received racpkt message, vector"
vector 97  CAIN.eNodeB.nic.mac  racDistanceSignal:vector  ETV
attr interpolationmode  none
attr title  "Rac distance to enb, vector"
vector 87  CAIN.eNodeB.nic.mac  sentPacketToLowerLayer:vector(packetBytes)  ETV
attr interpolationmode  none
attr source  sentPacketToLowerLayer
vector 288  CAIN.ueD2DTx[4].tcp  tcpRcvQueueBytes  ETV
vector 275  CAIN.ueD2DTx[4].tcp  "advertised window"  ETV
vector 274  CAIN.ueD2DTx[4].tcp  "receive window"  ETV
vector 277  CAIN.ueD2DTx[4].tcp  "sent ack"  ETV
vector 225  CAIN.ueD2DTx[4].nic.pdcpRrc  receivedPacketFromUpperLayer:vector(packetBytes)  ETV
attr interpolationmode  none
attr source  receivedPacketFromUpperLayer
vector 228  CAIN.ueD2DTx[4].nic.pdcpRrc  sentPacketToLowerLayer:vector(packetBytes)  ETV
attr interpolationmode  none
attr source  sentPacketToLowerLayer
vector 229  CAIN.ueD2DTx[4].nic.mac  receivedPacketFromUpperLayer:vector(packetBytes)  ETV
attr interpolationmode  none
attr source  receivedPacketFromUpperLayer
vector 232  CAIN.ueD2DTx[4].nic.mac  sentPacketToLowerLayer:vector(packetBytes)  ETV
attr interpolationmode  none
attr source  sentPacketToLowerLayer
vector 176  CAIN.ueD2DTx[2].nic.mac  receivedPacketFromLowerLayer:vector(packetBytes)  ETV
attr interpolationmode  none
attr source  receivedPacketFromLowerLayer
vector 187  CAIN.ueD2DTx[2].nic.mac  racpkt:vector  ETV
attr interpolationmode  none
attr title  "eNB received racpkt message, vector"
vector 188  CAIN.ueD2DTx[2].nic.mac  racDistanceSignal:vector  ETV
attr interpolationmode  none
attr title  "Rac distance to enb, vector"
vector 178  CAIN.ueD2DTx[2].nic.mac  sentPacketToLowerLayer:vector(packetBytes)  ETV
attr interpolationmode  none
attr source  sentPacketToLowerLayer
vector 203  CAIN.ueD2DTx[3].nic.mac  receivedPacketFromLowerLayer:vector(packetBytes)  ETV
attr interpolationmode  none
attr source  receivedPacketFromLowerLayer
vector 122  CAIN.ueD2DTx[0].nic.mac  receivedPacketFromLowerLayer:vector(packetBytes)  ETV
attr interpolationmode  none
attr source  receivedPacketFromLowerLayer
vector 133  CAIN.ueD2DTx[0].nic.mac  racpkt:vector  ETV
attr interpolationmode  none
attr title  "eNB received racpkt message, vector"
vector 134  CAIN.ueD2DTx[0].nic.mac  racDistanceSignal:vector  ETV
attr interpolationmode  none
attr title  "Rac distance to enb, vector"
vector 124  CAIN.ueD2DTx[0].nic.mac  sentPacketToLowerLayer:vector(packetBytes)  ETV
attr interpolationmode  none
attr source  sentPacketToLowerLayer
vector 149  CAIN.ueD2DTx[1].nic.mac  receivedPacketFromLowerLayer:vector(packetBytes)  ETV
attr interpolationmode  none
attr source  receivedPacketFromLowerLayer
vector 160  CAIN.ueD2DTx[1].nic.mac  racpkt:vector  ETV
attr interpolationmode  none
attr title  "eNB received racpkt message, vector"
vector 161  CAIN.ueD2DTx[1].nic.mac  racDistanceSignal:vector  ETV
attr interpolationmode  none
attr title  "Rac distance to enb, vector"
vector 151  CAIN.ueD2DTx[1].nic.mac  sentPacketToLowerLayer:vector(packetBytes)  ETV
attr interpolationmode  none
attr source  sentPacketToLowerLayer
vector 230  CAIN.ueD2DTx[4].nic.mac  receivedPacketFromLowerLayer:vector(packetBytes)  ETV
attr interpolationmode  none
attr source  receivedPacketFromLowerLayer
vector 241  CAIN.ueD2DTx[4].nic.mac  racpkt:vector  ETV
attr interpolationmode  none
attr title  "eNB received racpkt message, vector"
vector 242  CAIN.ueD2DTx[4].nic.mac  racDistanceSignal:vector  ETV
attr interpolationmode  none
attr title  "Rac distance to enb, vector"
vector 204  CAIN.ueD2DTx[3].nic.mac  sentPacketToUpperLayer:vector(packetBytes)  ETV
attr interpolationmode  none
attr source  sentPacketToUpperLayer
vector 214  CAIN.ueD2DTx[3].nic.mac  racpkt:vector  ETV
attr interpolationmode  none
attr title  "eNB received racpkt message, vector"
vector 215  CAIN.ueD2DTx[3].nic.mac  racDistanceSignal:vector  ETV
attr interpolationmode  none
attr title  "Rac distance to enb, vector"
vector 99  CAIN.eNodeB.nic.phy  averageCqiUlvect:vector  ETV
attr source  averageCqiUlvect
attr title  "Average Cqi reported in UL, vector"
attr unit  cqi
vector 93  CAIN.eNodeB.nic.mac  ServedDevs:vector  ETV
attr interpolationmode  none
attr title  "# of devices served on cain forwarding, vector"
vector 91  CAIN.eNodeB.nic.mac  DistanceSignal:vector  ETV
attr interpolationmode  none
attr title  "Distance to enb, vector"
vector 89  CAIN.eNodeB.nic.mac  CainMessage:vector  ETV
attr interpolationmode  none
attr title  "eNB received CAIN message, vector"
vector 231  CAIN.ueD2DTx[4].nic.mac  sentPacketToUpperLayer:vector(packetBytes)  ETV
attr interpolationmode  none
attr source  sentPacketToUpperLayer
vector 92  CAIN.eNodeB.nic.mac  HopDistanceSignal:vector  ETV
attr interpolationmode  none
attr title  "Distance to enb with hop forwarding, vector"
vector 90  CAIN.eNodeB.nic.mac  CainHopMessage:vector  ETV
attr interpolationmode  none
attr title  "eNB received CAIN hop message, vector"
vector 86  CAIN.eNodeB.nic.mac  sentPacketToUpperLayer:vector(packetBytes)  ETV
attr interpolationmode  none
attr source  sentPacketToUpperLayer
vector 81  CAIN.eNodeB.nic.pdcpRrc  receivedPacketFromLowerLayer:vector(packetBytes)  ETV
attr interpolationmode  none
attr source  receivedPacketFromLowerLayer
vector 82  CAIN.eNodeB.nic.pdcpRrc  sentPacketToUpperLayer:vector(packetBytes)  ETV
attr interpolationmode  none
attr source  sentPacketToUpperLayer
vector 80  CAIN.eNodeB.nic.pdcpRrc  receivedPacketFromUpperLayer:vector(packetBytes)  ETV
attr interpolationmode  none
attr source  receivedPacketFromUpperLayer
vector 83  CAIN.eNodeB.nic.pdcpRrc  sentPacketToLowerLayer:vector(packetBytes)  ETV
attr interpolationmode  none
attr source  sentPacketToLowerLayer
vector 84  CAIN.eNodeB.nic.mac  receivedPacketFromUpperLayer:vector(packetBytes)  ETV
attr interpolationmode  none
attr source  receivedPacketFromUpperLayer
vector 88  CAIN.eNodeB.nic.mac  measuredItbs:vector  ETV
attr source  measuredItbs
attr title  "TBS index, vector"
attr unit  ""
vector 135  CAIN.ueD2DTx[0].nic.phy  averageCqiDlvect:vector  ETV
attr source  averageCqiDlvect
attr title  "Average Cqi reported in DL, vector"
attr unit  cqi
vector 312  CAIN.ueD2DTx[0].tcp  tcpRcvQueueBytes  ETV
vector 299  CAIN.ueD2DTx[0].tcp  "advertised window"  ETV
vector 298  CAIN.ueD2DTx[0].tcp  "receive window"  ETV
vector 301  CAIN.ueD2DTx[0].tcp  "sent ack"  ETV
vector 117  CAIN.ueD2DTx[0].nic.pdcpRrc  receivedPacketFromUpperLayer:vector(packetBytes)  ETV
attr interpolationmode  none
attr source  receivedPacketFromUpperLayer
vector 120  CAIN.ueD2DTx[0].nic.pdcpRrc  sentPacketToLowerLayer:vector(packetBytes)  ETV
attr interpolationmode  none
attr source  sentPacketToLowerLayer
vector 121  CAIN.ueD2DTx[0].nic.mac  receivedPacketFromUpperLayer:vector(packetBytes)  ETV
attr interpolationmode  none
attr source  receivedPacketFromUpperLayer
vector 123  CAIN.ueD2DTx[0].nic.mac  sentPacketToUpperLayer:vector(packetBytes)  ETV
attr interpolationmode  none
attr source  sentPacketToUpperLayer
vector 118  CAIN.ueD2DTx[0].nic.pdcpRrc  receivedPacketFromLowerLayer:vector(packetBytes)  ETV
attr interpolationmode  none
attr source  receivedPacketFromLowerLayer
vector 119  CAIN.ueD2DTx[0].nic.pdcpRrc  sentPacketToUpperLayer:vector(packetBytes)  ETV
attr interpolationmode  none
attr source  sentPacketToUpperLayer
vector 189  CAIN.ueD2DTx[2].nic.phy  averageCqiDlvect:vector  ETV
attr source  averageCqiDlvect
attr title  "Average Cqi reported in DL, vector"
attr unit  cqi
vector 177  CAIN.ueD2DTx[2].nic.mac  sentPacketToUpperLayer:vector(packetBytes)  ETV
attr interpolationmode  none
attr source  sentPacketToUpperLayer
vector 172  CAIN.ueD2DTx[2].nic.pdcpRrc  receivedPacketFromLowerLayer:vector(packetBytes)  ETV
attr interpolationmode  none
attr source  receivedPacketFromLowerLayer
vector 173  CAIN.ueD2DTx[2].nic.pdcpRrc  sentPacketToUpperLayer:vector(packetBytes)  ETV
attr interpolationmode  none
attr source  sentPacketToUpperLayer
vector 336  CAIN.ueD2DTx[2].tcp  tcpRcvQueueBytes  ETV
vector 323  CAIN.ueD2DTx[2].tcp  "advertised window"  ETV
vector 322  CAIN.ueD2DTx[2].tcp  "receive window"  ETV
vector 325  CAIN.ueD2DTx[2].tcp  "sent ack"  ETV
vector 171  CAIN.ueD2DTx[2].nic.pdcpRrc  receivedPacketFromUpperLayer:vector(packetBytes)  ETV
attr interpolationmode  none
attr source  receivedPacketFromUpperLayer
vector 174  CAIN.ueD2DTx[2].nic.pdcpRrc  sentPacketToLowerLayer:vector(packetBytes)  ETV
attr interpolationmode  none
attr source  sentPacketToLowerLayer
vector 175  CAIN.ueD2DTx[2].nic.mac  receivedPacketFromUpperLayer:vector(packetBytes)  ETV
attr interpolationmode  none
attr source  receivedPacketFromUpperLayer
vector 360  CAIN.ueD2DTx[1].tcp  tcpRcvQueueBytes  ETV
vector 347  CAIN.ueD2DTx[1].tcp  "advertised window"  ETV
vector 346  CAIN.ueD2DTx[1].tcp  "receive window"  ETV
vector 349  CAIN.ueD2DTx[1].tcp  "sent ack"  ETV
vector 144  CAIN.ueD2DTx[1].nic.pdcpRrc  receivedPacketFromUpperLayer:vector(packetBytes)  ETV
attr interpolationmode  none
attr source  receivedPacketFromUpperLayer
vector 147  CAIN.ueD2DTx[1].nic.pdcpRrc  sentPacketToLowerLayer:vector(packetBytes)  ETV
attr interpolationmode  none
attr source  sentPacketToLowerLayer
vector 148  CAIN.ueD2DTx[1].nic.mac  receivedPacketFromUpperLayer:vector(packetBytes)  ETV
attr interpolationmode  none
attr source  receivedPacketFromUpperLayer
vector 150  CAIN.ueD2DTx[1].nic.mac  sentPacketToUpperLayer:vector(packetBytes)  ETV
attr interpolationmode  none
attr source  sentPacketToUpperLayer
vector 243  CAIN.ueD2DTx[4].nic.phy  averageCqiDlvect:vector  ETV
attr source  averageCqiDlvect
attr title  "Average Cqi reported in DL, vector"
attr unit  cqi
vector 226  CAIN.ueD2DTx[4].nic.pdcpRrc  receivedPacketFromLowerLayer:vector(packetBytes)  ETV
attr interpolationmode  none
attr source  receivedPacketFromLowerLayer
vector 227  CAIN.ueD2DTx[4].nic.pdcpRrc  sentPacketToUpperLayer:vector(packetBytes)  ETV
attr interpolationmode  none
attr source  sentPacketToUpperLayer
8	17259 8 0 0 0 0 1 0 0 0 0
9	17267 8 0 0 0 0 1 0 0 0 0
24	17275 9 0 0 0 0 1 0 0 0 0
25	17284 9 0 0 0 0 1 0 0 0 0
35	17293 9 0 0 0 0 1 0 0 0 0
36	17302 9 0 0 0 0 1 0 0 0 0
56	17311 9 0 0 0 0 1 0 0 0 0
57	17320 9 0 0 0 0 1 0 0 0 0
67	17329 9 0 0 0 0 1 0 0 0 0
68	17338 9 0 0 0 0 1 0 0 0 0
80	17347 260 723 95990 0.053 9.09 15 44 44 660 29040
81	17607 260 718 95985 0.053 9.09 15 45 45 675 30375
82	17867 260 718 95985 0.053 9.09 15 44 44 660 29040
83	18127 260 723 95990 0.053 9.09 15 45 45 675 30375
84	18387 523 726 96009 0.053 9.091 30 45 47 1380 63510
85	18910 141279 60 105462 0.002 9.998 8446 0 0 0 0
86	160189 508 714 96005 0.053 9.091 30 0 47 705 33135
87	160697 1375 527 96022 0.046 9.091 84 0 0 0 0
88	162072 263 741 96005 0.054 9.091 15 26 26 390 10140
89	162335 1137 661 95975 0.05 9.089 66 1 66 2211 98021
90	163472 360 713 95975 0.052 9.089 21 1 21 231 3311
91	163832 822 661 95954 0.05 9.087 45 162 424 14877 5522199
92	164654 390 713 95975 0.052 9.089 21 162 253 4926 1177542
93	165044 732 661 95954 0.05 9.087 45 1 4 171 665
96	165776 622 527 95975 0.046 9.089 36 1 36 666 16206
97	166398 649 527 95975 0.046 9.089 36 78 253 4932 817062
99	167047 259 643 95944 0.05 9.087 15 13 15 216 3120
104	167306 10 0 0 0 0 1 0 0 0 0
105	167316 10 0 0 0 0 1 0 0 0 0
117	167326 82 820 95340 0.057011171093 9.057011171093 3 44 44 132 5808
118	167408 107 830 95386 0.058 9.06 6 45 45 270 12150
119	167515 107 830 95386 0.058 9.06 6 44 44 264 11616
120	167622 82 820 95340 0.057011171093 9.057011171093 3 45 45 135 6075
121	167704 137 823 95450 0.057011171093 9.062 6 45 47 276 12702
122	167841 1134 574 95947 0.048 9.087 66 0 0 0 0
123	168975 159 825 95446 0.058 9.062 9 0 47 282 13254
124	169134 1130 574 95947 0.048 9.087 66 0 0 0 0
133	170264 970 574 95947 0.048 9.087 54 1 54 1485 53955
134	171234 991 574 95947 0.048 9.087 54 0 253 7185 1490205
135	172225 110 781 95335 0.055 9.057 6 15 15 90 1350
138	172335 10 0 0 0 0 1 1 1 1 1
144	172345 83 1261 95779 0.081515714929 9.081515714929 3 44 44 132 5808
147	172428 83 1261 95779 0.081515714929 9.081515714929 3 45 45 135 6075
148	172511 139 1264 95901 0.081515714929 9.086 6 45 47 276 12702
149	172650 521 577 96025 0.048 9.091 30 0 0 0 0
150	173171 53 1379 95897 0.086 9.086 3 0 0 0 0
151	173224 521 577 95906 0.048 9.086 30 0 0 0 0
160	173745 430 577 95873 0.048 9.085 24 1 24 300 4900
161	174175 445 577 95873 0.048 9.085 24 78 253 2922 493566
165	174620 10 0 0 0 0 1 1 1 1 1
171	174630 83 1177 95696 0.077668303985 9.077668303985 3 44 44 132 5808
172	174713 112 1102 96068 0.071 9.095 6 45 45 270 12150
173	174825 112 1102 96068 0.071 9.095 6 44 44 264 11616
174	174937 83 1177 95696 0.077668303985 9.077668303985 3 45 45 135 6075
175	175020 139 1180 95791 0.077668303985 9.082 6 45 47 276 12702
176	175159 1721 548 96046 0.047 9.092 99 0 0 0 0
177	176880 165 1098 96064 0.071 9.095 9 0 47 282 13254
178	177045 2184 548 96064 0.047 9.095 126 0 0 0 0
187	179229 1587 548 95965 0.047 9.088 87 1 87 3828 223300
188	180816 1623 548 95965 0.047 9.088 87 0 215 10668 2020686
189	182439 112 1079 96045 0.068 9.092 6 15 15 90 1350
192	182551 10 0 0 0 0 1 1 1 1 1
198	182561 82 507 95029 0.044111868511 9.044111868511 3 44 44 132 5808
201	182643 82 507 95029 0.044111868511 9.044111868511 3 45 45 135 6075
202	182725 137 510 95120 0.044111868511 9.049 6 45 47 276 12702
203	182862 626 568 95919 0.048 9.086 36 0 0 0 0
204	183488 52 595 95116 0.049 9.049 3 0 0 0 0
205	183540 626 515 95919 0.045 9.086 36 0 0 0 0
214	184166 543 613 95919 0.049 9.086 30 1 30 465 9455
215	184709 582 613 95919 0.049 9.086 30 162 215 5598 1051686
219	185291 10 0 0 0 0 1 1 1 1 1
225	185301 82 534 95055 0.046391128385 9.046391128385 3 44 44 132 5808
226	185383 56 1500 96018 0.091 9.091 3 45 45 135 6075
227	185439 56 1500 96018 0.091 9.091 3 44 44 132 5808
228	185495 82 534 95055 0.046391128385 9.046391128385 3 45 45 135 6075
229	185577 137 537 95196 0.046391128385 9.051 6 45 47 276 12702
230	185714 465 580 95963 0.048 9.088 27 0 0 0 0
231	186179 108 671 96014 0.051 9.091 6 0 47 141 6627
232	186287 468 544 96014 0.047 9.091 27 0 0 0 0
241	186755 320 580 95876 0.048 9.085 18 1 18 171 2109
242	187075 332 580 95876 0.048 9.085 18 78 253 1929 283287
243	187407 56 1444 95962 0.088 9.088 3 15 15 45 675
246	187463 10 0 0 0 0 1 1 1 1 1
250	187473 88 504 95026 0.044111868511 9.044111868511 3 7504 7504 22512 168930048
251	187561 88 504 95026 0.044111868511 9.044111868511 3 7504 7504 22512 168930048
253	187649 79 504 95026 0.044111868511 9.044111868511 3 0 0 0 0
264	187728 79 504 95026 0.044111868511 9.044111868511 3 0 0 0 0
274	187807 88 531 95052 0.046391128385 9.046391128385 3 7504 7504 22512 168930048
275	187895 88 531 95052 0.046391128385 9.046391128385 3 7504 7504 22512 168930048
277	187983 79 531 95052 0.046391128385 9.046391128385 3 0 0 0 0
288	188062 79 531 95052 0.046391128385 9.046391128385 3 0 0 0 0
298	188141 88 817 95337 0.057011171093 9.057011171093 3 7504 7504 22512 168930048
299	188229 88 817 95337 0.057011171093 9.057011171093 3 7504 7504 22512 168930048
301	188317 79 817 95337 0.057011171093 9.057011171093 3 0 0 0 0
312	188396 79 817 95337 0.057011171093 9.057011171093 3 0 0 0 0
322	188475 89 1174 95693 0.077668303985 9.077668303985 3 7504 7504 22512 168930048
323	188564 89 1174 95693 0.077668303985 9.077668303985 3 7504 7504 22512 168930048
325	188653 80 1174 95693 0.077668303985 9.077668303985 3 0 0 0 0
336	188733 80 1174 95693 0.077668303985 9.077668303985 3 0 0 0 0
346	188813 89 1258 95776 0.081515714929 9.081515714929 3 7504 7504 22512 168930048
347	188902 89 1258 95776 0.081515714929 9.081515714929 3 7504 7504 22512 168930048
349	188991 80 1258 95776 0.081515714929 9.081515714929 3 0 0 0 0
360	189071 80 1258 95776 0.081515714929 9.081515714929 3 0 0 0 0
