version 2
run CAIN-36-20200508-17:08:49-16297
attr configname CAIN
attr datetime 20200508-17:08:49
attr dist 200
attr experiment CAIN
attr inifile omnetpp.ini
attr iterationvars "$numUe=25, $pwr=-50, $dist=200, $mob=\"./movements/RWP-0.5.movements\""
attr iterationvars2 "$numUe=25, $pwr=-50, $dist=200, $mob=\"./movements/RWP-0.5.movements\", $repetition=1"
attr measurement "$numUe=25, $pwr=-50, $dist=200, $mob=\"./movements/RWP-0.5.movements\""
attr mob "\"./movements/RWP-0.5.movements\""
attr network lte.simulations.networks.CAIN
attr numUe 25
attr processid 16297
attr pwr -50
attr repetition 1
attr replication #1
attr resultdir results
attr runnumber 36
attr seedset 1
param **.**.amcMode "\"AUTO\""
param **.amcMode "\"D2D\""
param **.cainNetwork true
param **.channelControl.alpha 1.0
param **.channelControl.carrierFrequency 2100e+6Hz
param **.channelControl.pMax 10W
param **.d2dCqi 7
param **.deployer.numRbDl 50
param **.deployer.numRbUl 50
param **.distThresh ${dist=200}
param **.fbDelay 1
param **.feedbackComputation "xmldoc(\"config_channel.xml\")"
param **.mobility.constraintAreaMaxX 1000m
param **.mobility.constraintAreaMaxY 1000m
param **.mobility.constraintAreaMaxZ 0m
param **.mobility.constraintAreaMinX 0m
param **.mobility.constraintAreaMinY 0m
param **.mobility.constraintAreaMinZ 0m
param **.nic.phy.channelModel "xmldoc(\"config_channel.xml\")"
param **.numBands 50
param **.pwrThresh "${pwr= -50}"
param **.qtdThresh 3
param **.rbAllocationType "\"localized\""
param **.routingRecorder.enabled false
param **.tcpApp[*].tClose -1s
param **.ueD2DTx[*].mobility.changeAngleBy "normal(0deg, 30deg)"
param **.ueD2DTx[*].mobility.changeInterval "normal(5s, 0.1s)"
param **.ueD2DTx[*].mobility.nodeId -1
param **.ueD2DTx[*].mobility.speed "normal(2mps, 0.01mps)"
param **.ueD2DTx[*].mobility.traceFile "${mob=\"./movements/RWP-0.0.movements\",\"./movements/RWP-0.5.movements\",\"./movements/RPGM-0.0.movements\",\"./movements/RPGM-0.5.movements\",\"./movements/RWPRPGM-0.0.movements\",\"./movements/RWPRPGM-0.5.movements\"}"
param **.ueD2DTx[*].mobilityType "\"BonnMotionMobility\""
param **.usePreconfiguredTxParams false
param *.eNodeB*.numX2Apps 1
param *.eNodeB*.x2App[*].server.localPort "5000 + ancestorIndex(1)"
param *.eNodeB.d2dCapable false
param *.eNodeB.mobility.initFromDisplayString false
param *.eNodeB.mobility.initialX 300m
param *.eNodeB.mobility.initialY 300m
param *.eNodeB.nic.phy.enableD2DCqiReporting true
param *.eNodeB.txPower 19952.62315mw
param *.eNodeB.x2App[0].client.connectAddress "\"eNodeB1%x2ppp0\""
param *.eNodeB1.d2dCapable true
param *.eNodeB1.mobility.initFromDisplayString false
param *.eNodeB1.mobility.initialX 700m
param *.eNodeB1.mobility.initialY 300m
param *.eNodeB1.nic.phy.enableD2DCqiReporting true
param *.eNodeB1.txPower 19952.62315mw
param *.eNodeB1.x2App[0].client.connectAddress "\"eNodeB%x2ppp0\""
param *.extCell[*].bandAllocationType "\"FULL_ALLOC\""
param *.extCell[*].bandUtilization 0.5
param *.extCell[*].txDirection "\"ANISOTROPIC\""
param *.extCell[*].txPower 20
param *.extCell[0].position_x 100m
param *.extCell[0].position_y 600m
param *.extCell[0].txAngle 315
param *.extCell[1].position_x 600m
param *.extCell[1].position_y 600m
param *.extCell[1].txAngle 225
param *.numExtCells 2
param *.numUeCell 0
param *.numUeD2DRx 1
param *.numUeD2DTx 1
param *.ue*.macCellId 1
param *.ue*.masterId 1
param *.ue*.mobility.initFromDisplayString false
param *.ue*[0].macCellId 1
param *.ue*[0].masterId 1
param *.ue*[0].mobility.initFromDisplayString false
param *.ueD2D*.numTcpApps 1
param *.ueD2D*[*].d2dCapable true
param *.ueD2D*[0].d2dCapable false
param *.ueD2D*[0].numTcpApps 1
param *.ueD2DRx[0].mobility.initialX 310m
param *.ueD2DRx[0].mobility.initialY 350m
param *.ueD2DRx[0].tcpApp[*].localPort 1000
param *.ueD2DRx[0].tcpApp[*].typename "\"TCPSinkApp\""
param *.ueD2DTx*.nic.d2dPeerAddresses "\"ueD2DTx[1]\""
param *.ueD2DTx*.tcpApp[*].connectAddress "\"ueD2DTx[0]\""
param *.ueD2DTx*.tcpApp[*].localAddress "\"ueD2DTx\""
param *.ueD2DTx*.tcpApp[*].localPort 1000
param *.ueD2DTx*.tcpApp[*].sendBytes 1GiB
param *.ueD2DTx*.tcpApp[*].typename "\"TCPSessionApp\""
param *.ueD2DTx*.tcpApp[0].active true
param *.ueD2DTx*.tcpApp[0].connectPort 1000
param *.ueD2DTx*.tcpApp[0].tOpen uniform(0.010s,0.1s)
param *.ueD2DTx*.tcpApp[0].tSend uniform(0.15s,0.5s)
param *.ueD2DTx[0].mobility.initialX 290m
param *.ueD2DTx[0].mobility.initialY 350m
param *.ueD2DTx[0].tcpApp[*].localPort 1000
param *.ueD2DTx[0].tcpApp[*].sendBytes 1GiB
param *.ueD2DTx[0].tcpApp[*].typename "\"TCPSessionApp\""
param *.ueD2DTx[0].tcpApp[0].active true
param *.ueD2DTx[0].tcpApp[0].connectAddress "\"ueD2DRx[0]\""
param *.ueD2DTx[0].tcpApp[0].connectPort 1000
param *.ueD2DTx[0].tcpApp[0].localAddress "\"ueD2DTx[0]\""
param *.ueD2DTx[0].tcpApp[0].tOpen uniform(0.010s,0.1s)
param *.ueD2DTx[0].tcpApp[0].tSend uniform(0.15s,0.5s)
param *.ueD2DTx[1].mobility.initialX 690m
param *.ueD2DTx[1].mobility.initialY 250m

vector 8  CAIN.server.ppp[0].queue  queueLength:vector  ETV
attr interpolationmode  sample-hold
attr title  "queue length, vector"
vector 9  CAIN.server.ppp[0].ppp  txState:vector  ETV
attr interpolationmode  sample-hold
attr title  "tx state, vector"
vector 24  CAIN.router.ppp[0].queue  queueLength:vector  ETV
attr interpolationmode  sample-hold
attr title  "queue length, vector"
vector 25  CAIN.router.ppp[0].ppp  txState:vector  ETV
attr interpolationmode  sample-hold
attr title  "tx state, vector"
vector 35  CAIN.router.ppp[1].queue  queueLength:vector  ETV
attr interpolationmode  sample-hold
attr title  "queue length, vector"
vector 36  CAIN.router.ppp[1].ppp  txState:vector  ETV
attr interpolationmode  sample-hold
attr title  "tx state, vector"
vector 56  CAIN.pgw.ppp[0].queue  queueLength:vector  ETV
attr interpolationmode  sample-hold
attr title  "queue length, vector"
vector 57  CAIN.pgw.ppp[0].ppp  txState:vector  ETV
attr interpolationmode  sample-hold
attr title  "tx state, vector"
vector 67  CAIN.pgw.ppp[1].queue  queueLength:vector  ETV
attr interpolationmode  sample-hold
attr title  "queue length, vector"
vector 68  CAIN.pgw.ppp[1].ppp  txState:vector  ETV
attr interpolationmode  sample-hold
attr title  "tx state, vector"
vector 78  CAIN.pgw.pppInterface.queue  queueLength:vector  ETV
attr interpolationmode  sample-hold
attr title  "queue length, vector"
vector 79  CAIN.pgw.pppInterface.ppp  txState:vector  ETV
attr interpolationmode  sample-hold
attr title  "tx state, vector"
vector 120  CAIN.eNodeB.pppIf.queue  queueLength:vector  ETV
attr interpolationmode  sample-hold
attr title  "queue length, vector"
vector 121  CAIN.eNodeB.pppIf.ppp  txState:vector  ETV
attr interpolationmode  sample-hold
attr title  "tx state, vector"
vector 131  CAIN.eNodeB.x2ppp[0].queue  queueLength:vector  ETV
attr interpolationmode  sample-hold
attr title  "queue length, vector"
vector 132  CAIN.eNodeB.x2ppp[0].ppp  txState:vector  ETV
attr interpolationmode  sample-hold
attr title  "tx state, vector"
vector 178  CAIN.eNodeB1.pppIf.queue  queueLength:vector  ETV
attr interpolationmode  sample-hold
attr title  "queue length, vector"
vector 179  CAIN.eNodeB1.pppIf.ppp  txState:vector  ETV
attr interpolationmode  sample-hold
attr title  "tx state, vector"
vector 189  CAIN.eNodeB1.x2ppp[0].queue  queueLength:vector  ETV
attr interpolationmode  sample-hold
attr title  "queue length, vector"
vector 190  CAIN.eNodeB1.x2ppp[0].ppp  txState:vector  ETV
attr interpolationmode  sample-hold
attr title  "tx state, vector"
vector 231  CAIN.ueD2DTx[0].nic.phy  servingCell:vector  ETV
attr source  servingCell
attr title  "ID of the serving eNodeB for the UE, vector"
attr unit  ""
vector 263  CAIN.ueD2DTx[1].nic.phy  servingCell:vector  ETV
attr source  servingCell
attr title  "ID of the serving eNodeB for the UE, vector"
attr unit  ""
vector 295  CAIN.ueD2DTx[2].nic.phy  servingCell:vector  ETV
attr source  servingCell
attr title  "ID of the serving eNodeB for the UE, vector"
attr unit  ""
vector 327  CAIN.ueD2DTx[3].nic.phy  servingCell:vector  ETV
attr source  servingCell
attr title  "ID of the serving eNodeB for the UE, vector"
attr unit  ""
vector 359  CAIN.ueD2DTx[4].nic.phy  servingCell:vector  ETV
attr source  servingCell
attr title  "ID of the serving eNodeB for the UE, vector"
attr unit  ""
vector 391  CAIN.ueD2DTx[5].nic.phy  servingCell:vector  ETV
attr source  servingCell
attr title  "ID of the serving eNodeB for the UE, vector"
attr unit  ""
vector 423  CAIN.ueD2DTx[6].nic.phy  servingCell:vector  ETV
attr source  servingCell
attr title  "ID of the serving eNodeB for the UE, vector"
attr unit  ""
vector 455  CAIN.ueD2DTx[7].nic.phy  servingCell:vector  ETV
attr source  servingCell
attr title  "ID of the serving eNodeB for the UE, vector"
attr unit  ""
vector 487  CAIN.ueD2DTx[8].nic.phy  servingCell:vector  ETV
attr source  servingCell
attr title  "ID of the serving eNodeB for the UE, vector"
attr unit  ""
vector 519  CAIN.ueD2DTx[9].nic.phy  servingCell:vector  ETV
attr source  servingCell
attr title  "ID of the serving eNodeB for the UE, vector"
attr unit  ""
vector 551  CAIN.ueD2DTx[10].nic.phy  servingCell:vector  ETV
attr source  servingCell
attr title  "ID of the serving eNodeB for the UE, vector"
attr unit  ""
vector 583  CAIN.ueD2DTx[11].nic.phy  servingCell:vector  ETV
attr source  servingCell
attr title  "ID of the serving eNodeB for the UE, vector"
attr unit  ""
vector 615  CAIN.ueD2DTx[12].nic.phy  servingCell:vector  ETV
attr source  servingCell
attr title  "ID of the serving eNodeB for the UE, vector"
attr unit  ""
vector 647  CAIN.ueD2DTx[13].nic.phy  servingCell:vector  ETV
attr source  servingCell
attr title  "ID of the serving eNodeB for the UE, vector"
attr unit  ""
vector 679  CAIN.ueD2DTx[14].nic.phy  servingCell:vector  ETV
attr source  servingCell
attr title  "ID of the serving eNodeB for the UE, vector"
attr unit  ""
vector 711  CAIN.ueD2DTx[15].nic.phy  servingCell:vector  ETV
attr source  servingCell
attr title  "ID of the serving eNodeB for the UE, vector"
attr unit  ""
vector 743  CAIN.ueD2DTx[16].nic.phy  servingCell:vector  ETV
attr source  servingCell
attr title  "ID of the serving eNodeB for the UE, vector"
attr unit  ""
vector 775  CAIN.ueD2DTx[17].nic.phy  servingCell:vector  ETV
attr source  servingCell
attr title  "ID of the serving eNodeB for the UE, vector"
attr unit  ""
vector 807  CAIN.ueD2DTx[18].nic.phy  servingCell:vector  ETV
attr source  servingCell
attr title  "ID of the serving eNodeB for the UE, vector"
attr unit  ""
vector 839  CAIN.ueD2DTx[19].nic.phy  servingCell:vector  ETV
attr source  servingCell
attr title  "ID of the serving eNodeB for the UE, vector"
attr unit  ""
vector 871  CAIN.ueD2DTx[20].nic.phy  servingCell:vector  ETV
attr source  servingCell
attr title  "ID of the serving eNodeB for the UE, vector"
attr unit  ""
vector 903  CAIN.ueD2DTx[21].nic.phy  servingCell:vector  ETV
attr source  servingCell
attr title  "ID of the serving eNodeB for the UE, vector"
attr unit  ""
vector 935  CAIN.ueD2DTx[22].nic.phy  servingCell:vector  ETV
attr source  servingCell
attr title  "ID of the serving eNodeB for the UE, vector"
attr unit  ""
vector 967  CAIN.ueD2DTx[23].nic.phy  servingCell:vector  ETV
attr source  servingCell
attr title  "ID of the serving eNodeB for the UE, vector"
attr unit  ""
vector 999  CAIN.ueD2DTx[24].nic.phy  servingCell:vector  ETV
attr source  servingCell
attr title  "ID of the serving eNodeB for the UE, vector"
attr unit  ""
vector 1023  CAIN.eNodeB.sctp  "Throughput of Association 3"  ETV
vector 1045  CAIN.eNodeB1.sctp  "Throughput of Association 4"  ETV
vector 1067  CAIN.eNodeB.sctp  "Throughput of Association 1"  ETV
vector 1087  CAIN.eNodeB.sctp  "Fast Recovery State 1:10.0.5.2"  ETV
vector 1116  CAIN.eNodeB1.sctp  "Throughput of Association 2"  ETV
vector 1136  CAIN.eNodeB1.sctp  "Fast Recovery State 2:10.0.5.1"  ETV
vector 128  CAIN.eNodeB.x2ppp[0].queue  rcvdPk:vector(packetBytes)  ETV
attr interpolationmode  none
attr title  "received packets, vector(packetBytes)"
vector 130  CAIN.eNodeB.x2ppp[0].queue  queueingTime:vector  ETV
attr interpolationmode  none
attr title  "queueing time, vector"
vector 186  CAIN.eNodeB1.x2ppp[0].queue  rcvdPk:vector(packetBytes)  ETV
attr interpolationmode  none
attr title  "received packets, vector(packetBytes)"
vector 188  CAIN.eNodeB1.x2ppp[0].queue  queueingTime:vector  ETV
attr interpolationmode  none
attr title  "queueing time, vector"
vector 137  CAIN.eNodeB.x2ppp[0].ppp  rcvdPkFromHL:vector(packetBytes)  ETV
attr interpolationmode  none
attr source  packetReceivedFromUpper
attr title  "packets received from higher layer, vector(packetBytes)"
vector 133  CAIN.eNodeB.x2ppp[0].ppp  txPk:vector(packetBytes)  ETV
attr interpolationmode  none
attr source  packetSentToLower
attr title  "packets transmitted, vector(packetBytes)"
vector 195  CAIN.eNodeB1.x2ppp[0].ppp  rcvdPkFromHL:vector(packetBytes)  ETV
attr interpolationmode  none
attr source  packetReceivedFromUpper
attr title  "packets received from higher layer, vector(packetBytes)"
vector 191  CAIN.eNodeB1.x2ppp[0].ppp  txPk:vector(packetBytes)  ETV
attr interpolationmode  none
attr source  packetSentToLower
attr title  "packets transmitted, vector(packetBytes)"
vector 192  CAIN.eNodeB1.x2ppp[0].ppp  rxPkOk:vector(packetBytes)  ETV
attr interpolationmode  none
attr source  rxPkOk
attr title  "packets received OK, vector(packetBytes)"
vector 196  CAIN.eNodeB1.x2ppp[0].ppp  passedUpPk:vector(packetBytes)  ETV
attr interpolationmode  none
attr source  packetSentToUpper
attr title  "packets passed to higher layer, vector(packetBytes)"
vector 134  CAIN.eNodeB.x2ppp[0].ppp  rxPkOk:vector(packetBytes)  ETV
attr interpolationmode  none
attr source  rxPkOk
attr title  "packets received OK, vector(packetBytes)"
vector 138  CAIN.eNodeB.x2ppp[0].ppp  passedUpPk:vector(packetBytes)  ETV
attr interpolationmode  none
attr source  packetSentToUpper
attr title  "packets passed to higher layer, vector(packetBytes)"
vector 1165  CAIN.eNodeB1.sctp  "Throughput of Association 4"  ETV
vector 1042  CAIN.eNodeB1.sctp  "Peer Rwnd 4"  ETV
vector 1185  CAIN.eNodeB1.sctp  "Fast Recovery State 5:10.0.4.1"  ETV
vector 1212  CAIN.eNodeB1.sctp  "Fast Recovery State 5:10.0.2.2"  ETV
vector 1239  CAIN.eNodeB1.sctp  "Fast Recovery State 5:10.0.5.1"  ETV
vector 1268  CAIN.eNodeB.sctp  "Throughput of Association 3"  ETV
vector 1020  CAIN.eNodeB.sctp  "Peer Rwnd 3"  ETV
vector 1288  CAIN.eNodeB.sctp  "Fast Recovery State 6:10.0.4.2"  ETV
vector 1315  CAIN.eNodeB.sctp  "Fast Recovery State 6:10.0.3.2"  ETV
vector 1342  CAIN.eNodeB.sctp  "Fast Recovery State 6:10.0.5.2"  ETV
vector 1064  CAIN.eNodeB.sctp  "Peer Rwnd 1"  ETV
vector 1369  CAIN.eNodeB.sctp  "Fast Recovery State 1:10.0.4.2"  ETV
vector 1396  CAIN.eNodeB.sctp  "Fast Recovery State 1:10.0.3.2"  ETV
vector 1113  CAIN.eNodeB1.sctp  "Peer Rwnd 2"  ETV
vector 1423  CAIN.eNodeB1.sctp  "Fast Recovery State 2:10.0.4.1"  ETV
vector 1450  CAIN.eNodeB1.sctp  "Fast Recovery State 2:10.0.2.2"  ETV
vector 1195  CAIN.eNodeB1.sctp  "Slow Start Threshold 5:10.0.2.2"  ETV
vector 1196  CAIN.eNodeB1.sctp  "Congestion Window 5:10.0.2.2"  ETV
vector 1197  CAIN.eNodeB1.sctp  "Bandwidth 5:10.0.2.2"  ETV
vector 1200  CAIN.eNodeB1.sctp  "HB Sent 5:10.0.2.2"  ETV
vector 1193  CAIN.eNodeB1.sctp  "RTO 5:10.0.2.2"  ETV
vector 1168  CAIN.eNodeB1.sctp  "Slow Start Threshold 5:10.0.4.1"  ETV
vector 1169  CAIN.eNodeB1.sctp  "Congestion Window 5:10.0.4.1"  ETV
vector 1170  CAIN.eNodeB1.sctp  "Bandwidth 5:10.0.4.1"  ETV
vector 1173  CAIN.eNodeB1.sctp  "HB Sent 5:10.0.4.1"  ETV
vector 1166  CAIN.eNodeB1.sctp  "RTO 5:10.0.4.1"  ETV
vector 1222  CAIN.eNodeB1.sctp  "Slow Start Threshold 5:10.0.5.1"  ETV
vector 1223  CAIN.eNodeB1.sctp  "Congestion Window 5:10.0.5.1"  ETV
vector 1224  CAIN.eNodeB1.sctp  "Bandwidth 5:10.0.5.1"  ETV
vector 1220  CAIN.eNodeB1.sctp  "RTO 5:10.0.5.1"  ETV
vector 1298  CAIN.eNodeB.sctp  "Slow Start Threshold 6:10.0.3.2"  ETV
vector 1299  CAIN.eNodeB.sctp  "Congestion Window 6:10.0.3.2"  ETV
vector 1300  CAIN.eNodeB.sctp  "Bandwidth 6:10.0.3.2"  ETV
vector 1303  CAIN.eNodeB.sctp  "HB Sent 6:10.0.3.2"  ETV
vector 1296  CAIN.eNodeB.sctp  "RTO 6:10.0.3.2"  ETV
vector 1271  CAIN.eNodeB.sctp  "Slow Start Threshold 6:10.0.4.2"  ETV
vector 1272  CAIN.eNodeB.sctp  "Congestion Window 6:10.0.4.2"  ETV
vector 1273  CAIN.eNodeB.sctp  "Bandwidth 6:10.0.4.2"  ETV
vector 1276  CAIN.eNodeB.sctp  "HB Sent 6:10.0.4.2"  ETV
vector 1269  CAIN.eNodeB.sctp  "RTO 6:10.0.4.2"  ETV
vector 1325  CAIN.eNodeB.sctp  "Slow Start Threshold 6:10.0.5.2"  ETV
vector 1326  CAIN.eNodeB.sctp  "Congestion Window 6:10.0.5.2"  ETV
vector 1327  CAIN.eNodeB.sctp  "Bandwidth 6:10.0.5.2"  ETV
vector 1323  CAIN.eNodeB.sctp  "RTO 6:10.0.5.2"  ETV
vector 1076  CAIN.eNodeB.sctp  "HB ACK Sent 1:10.0.5.2"  ETV
vector 1077  CAIN.eNodeB.sctp  "HB Received 1:10.0.5.2"  ETV
vector 1125  CAIN.eNodeB1.sctp  "HB ACK Sent 2:10.0.5.1"  ETV
vector 1126  CAIN.eNodeB1.sctp  "HB Received 2:10.0.5.1"  ETV
vector 1379  CAIN.eNodeB.sctp  "Slow Start Threshold 1:10.0.3.2"  ETV
vector 1380  CAIN.eNodeB.sctp  "Congestion Window 1:10.0.3.2"  ETV
vector 1381  CAIN.eNodeB.sctp  "Bandwidth 1:10.0.3.2"  ETV
vector 1384  CAIN.eNodeB.sctp  "HB Sent 1:10.0.3.2"  ETV
vector 1377  CAIN.eNodeB.sctp  "RTO 1:10.0.3.2"  ETV
vector 1352  CAIN.eNodeB.sctp  "Slow Start Threshold 1:10.0.4.2"  ETV
vector 1353  CAIN.eNodeB.sctp  "Congestion Window 1:10.0.4.2"  ETV
vector 1354  CAIN.eNodeB.sctp  "Bandwidth 1:10.0.4.2"  ETV
vector 1357  CAIN.eNodeB.sctp  "HB Sent 1:10.0.4.2"  ETV
vector 1350  CAIN.eNodeB.sctp  "RTO 1:10.0.4.2"  ETV
vector 1070  CAIN.eNodeB.sctp  "Slow Start Threshold 1:10.0.5.2"  ETV
vector 1071  CAIN.eNodeB.sctp  "Congestion Window 1:10.0.5.2"  ETV
vector 1072  CAIN.eNodeB.sctp  "Bandwidth 1:10.0.5.2"  ETV
vector 1068  CAIN.eNodeB.sctp  "RTO 1:10.0.5.2"  ETV
vector 1433  CAIN.eNodeB1.sctp  "Slow Start Threshold 2:10.0.2.2"  ETV
vector 1434  CAIN.eNodeB1.sctp  "Congestion Window 2:10.0.2.2"  ETV
vector 1435  CAIN.eNodeB1.sctp  "Bandwidth 2:10.0.2.2"  ETV
vector 1438  CAIN.eNodeB1.sctp  "HB Sent 2:10.0.2.2"  ETV
vector 1431  CAIN.eNodeB1.sctp  "RTO 2:10.0.2.2"  ETV
vector 1406  CAIN.eNodeB1.sctp  "Slow Start Threshold 2:10.0.4.1"  ETV
vector 1407  CAIN.eNodeB1.sctp  "Congestion Window 2:10.0.4.1"  ETV
vector 1408  CAIN.eNodeB1.sctp  "Bandwidth 2:10.0.4.1"  ETV
vector 1411  CAIN.eNodeB1.sctp  "HB Sent 2:10.0.4.1"  ETV
vector 1404  CAIN.eNodeB1.sctp  "RTO 2:10.0.4.1"  ETV
vector 1119  CAIN.eNodeB1.sctp  "Slow Start Threshold 2:10.0.5.1"  ETV
vector 1120  CAIN.eNodeB1.sctp  "Congestion Window 2:10.0.5.1"  ETV
vector 1121  CAIN.eNodeB1.sctp  "Bandwidth 2:10.0.5.1"  ETV
vector 1117  CAIN.eNodeB1.sctp  "RTO 2:10.0.5.1"  ETV
vector 1333  CAIN.eNodeB.sctp  "HB ACK Received 6:10.0.5.2"  ETV
vector 1324  CAIN.eNodeB.sctp  "RTT 6:10.0.5.2"  ETV
vector 1230  CAIN.eNodeB1.sctp  "HB ACK Received 5:10.0.5.1"  ETV
vector 1221  CAIN.eNodeB1.sctp  "RTT 5:10.0.5.1"  ETV
vector 1331  CAIN.eNodeB.sctp  "HB ACK Sent 6:10.0.5.2"  ETV
vector 1332  CAIN.eNodeB.sctp  "HB Received 6:10.0.5.2"  ETV
vector 1228  CAIN.eNodeB1.sctp  "HB ACK Sent 5:10.0.5.1"  ETV
vector 1229  CAIN.eNodeB1.sctp  "HB Received 5:10.0.5.1"  ETV
vector 1127  CAIN.eNodeB1.sctp  "HB ACK Received 2:10.0.5.1"  ETV
vector 1118  CAIN.eNodeB1.sctp  "RTT 2:10.0.5.1"  ETV
vector 1078  CAIN.eNodeB.sctp  "HB ACK Received 1:10.0.5.2"  ETV
vector 1069  CAIN.eNodeB.sctp  "RTT 1:10.0.5.2"  ETV
vector 96  CAIN.eNodeB.nic.mac  receivedPacketFromLowerLayer:vector(packetBytes)  ETV
attr interpolationmode  none
attr source  receivedPacketFromLowerLayer
vector 1465  CAIN.eNodeB.sctp  "SendQueue of Association 6"  ETV
vector 1328  CAIN.eNodeB.sctp  "TSN Sent 6:10.0.5.2"  ETV
vector 1335  CAIN.eNodeB.sctp  "Outstanding Bytes 6:10.0.5.2"  ETV
vector 1008  CAIN.eNodeB.sctp  "Outstanding Bytes 3:Total"  ETV
vector 1334  CAIN.eNodeB.sctp  "Queued Sent Bytes 6:10.0.5.2"  ETV
vector 1007  CAIN.eNodeB.sctp  "Queued Sent Bytes 3:Total"  ETV
vector 1123  CAIN.eNodeB1.sctp  "TSN Received 2:10.0.5.1"  ETV
vector 1099  CAIN.eNodeB1.sctp  "Queued Received Bytes 2:Total"  ETV
vector 1095  CAIN.eNodeB1.sctp  "Advertised Receiver Window 2"  ETV
vector 1104  CAIN.eNodeB1.sctp  "Number of Total Gap Blocks Stored 2"  ETV
vector 1105  CAIN.eNodeB1.sctp  "Number of Revokable Gap Blocks Stored 2"  ETV
vector 1106  CAIN.eNodeB1.sctp  "Number of Non-Revokable Gap Blocks Stored 2"  ETV
vector 1107  CAIN.eNodeB1.sctp  "Number of Duplicate TSNs Stored 2"  ETV
vector 1111  CAIN.eNodeB1.sctp  "Length of SACK Sent 2"  ETV
vector 1108  CAIN.eNodeB1.sctp  "Number of Revokable Gap Blocks Sent 2"  ETV
vector 1109  CAIN.eNodeB1.sctp  "Number of Non-Revokable Gap Blocks Sent 2"  ETV
vector 1110  CAIN.eNodeB1.sctp  "Number of Duplicate TSNs Sent 2"  ETV
vector 1115  CAIN.eNodeB1.sctp  "End to End Delay of Association 2"  ETV
vector 199  CAIN.eNodeB1.x2App[0].client  rcvdPk:vector(packetBytes)  ETV
attr interpolationmode  none
attr source  rcvdPk
attr title  "packets received, vector(packetBytes)"
vector 1464  CAIN.eNodeB.sctp  "Number of Gap Blocks in Last SACK of Association 6"  ETV
vector 1009  CAIN.eNodeB.sctp  "Number of Revokable Gap Blocks in SACK 3"  ETV
vector 1010  CAIN.eNodeB.sctp  "Number of Non-Revokable Gap Blocks in SACK 3"  ETV
vector 1345  CAIN.eNodeB.sctp  "TSN Acked CumAck 6:10.0.5.2"  ETV
vector 1311  CAIN.eNodeB.sctp  "Number of Gap Acked Chunks in Last SACK 6:10.0.3.2"  ETV
vector 1312  CAIN.eNodeB.sctp  "Number of Non-Revokable Gap Acked Chunks in Last SACK 6:10.0.3.2"  ETV
vector 1313  CAIN.eNodeB.sctp  "Number of Gap Missed Chunks in Last SACK 6:10.0.3.2"  ETV
vector 1284  CAIN.eNodeB.sctp  "Number of Gap Acked Chunks in Last SACK 6:10.0.4.2"  ETV
vector 1285  CAIN.eNodeB.sctp  "Number of Non-Revokable Gap Acked Chunks in Last SACK 6:10.0.4.2"  ETV
vector 1286  CAIN.eNodeB.sctp  "Number of Gap Missed Chunks in Last SACK 6:10.0.4.2"  ETV
vector 1338  CAIN.eNodeB.sctp  "Number of Gap Acked Chunks in Last SACK 6:10.0.5.2"  ETV
vector 1339  CAIN.eNodeB.sctp  "Number of Non-Revokable Gap Acked Chunks in Last SACK 6:10.0.5.2"  ETV
vector 1340  CAIN.eNodeB.sctp  "Number of Gap Missed Chunks in Last SACK 6:10.0.5.2"  ETV
vector 1019  CAIN.eNodeB.sctp  "Arwnd in Last SACK 3"  ETV
vector 1347  CAIN.eNodeB.sctp  "TSN PseudoCumAck 6:10.0.5.2"  ETV
vector 1348  CAIN.eNodeB.sctp  "TSN RTXPseudoCumAck 6:10.0.5.2"  ETV
vector 1341  CAIN.eNodeB.sctp  "Partial Bytes Acked 6:10.0.5.2"  ETV
vector 1493  CAIN.ueD2DTx[13].tcp  tcpRcvQueueBytes  ETV
vector 1480  CAIN.ueD2DTx[13].tcp  "advertised window"  ETV
vector 1479  CAIN.ueD2DTx[13].tcp  "receive window"  ETV
vector 1482  CAIN.ueD2DTx[13].tcp  "sent ack"  ETV
vector 621  CAIN.ueD2DTx[13].nic.pdcpRrc  receivedPacketFromUpperLayer:vector(packetBytes)  ETV
attr interpolationmode  none
attr source  receivedPacketFromUpperLayer
vector 624  CAIN.ueD2DTx[13].nic.pdcpRrc  sentPacketToLowerLayer:vector(packetBytes)  ETV
attr interpolationmode  none
attr source  sentPacketToLowerLayer
vector 625  CAIN.ueD2DTx[13].nic.mac  receivedPacketFromUpperLayer:vector(packetBytes)  ETV
attr interpolationmode  none
attr source  receivedPacketFromUpperLayer
vector 628  CAIN.ueD2DTx[13].nic.mac  sentPacketToLowerLayer:vector(packetBytes)  ETV
attr interpolationmode  none
attr source  sentPacketToLowerLayer
vector 111  CAIN.eNodeB.nic.mac  racpkt:vector  ETV
attr interpolationmode  none
attr title  "eNB received racpkt message, vector"
vector 112  CAIN.eNodeB.nic.mac  racDistanceSignal:vector  ETV
attr interpolationmode  none
attr title  "Rac distance to enb, vector"
vector 113  CAIN.eNodeB.nic.mac  racServedDevsSignal:vector  ETV
attr interpolationmode  none
attr title  "# of devices served on rac arriavall, vector"
vector 98  CAIN.eNodeB.nic.mac  sentPacketToLowerLayer:vector(packetBytes)  ETV
attr interpolationmode  none
attr source  sentPacketToLowerLayer
vector 626  CAIN.ueD2DTx[13].nic.mac  receivedPacketFromLowerLayer:vector(packetBytes)  ETV
attr interpolationmode  none
attr source  receivedPacketFromLowerLayer
vector 627  CAIN.ueD2DTx[13].nic.mac  sentPacketToUpperLayer:vector(packetBytes)  ETV
attr interpolationmode  none
attr source  sentPacketToUpperLayer
vector 1517  CAIN.ueD2DTx[18].tcp  tcpRcvQueueBytes  ETV
vector 1504  CAIN.ueD2DTx[18].tcp  "advertised window"  ETV
vector 1503  CAIN.ueD2DTx[18].tcp  "receive window"  ETV
vector 1506  CAIN.ueD2DTx[18].tcp  "sent ack"  ETV
vector 781  CAIN.ueD2DTx[18].nic.pdcpRrc  receivedPacketFromUpperLayer:vector(packetBytes)  ETV
attr interpolationmode  none
attr source  receivedPacketFromUpperLayer
vector 784  CAIN.ueD2DTx[18].nic.pdcpRrc  sentPacketToLowerLayer:vector(packetBytes)  ETV
attr interpolationmode  none
attr source  sentPacketToLowerLayer
vector 785  CAIN.ueD2DTx[18].nic.mac  receivedPacketFromUpperLayer:vector(packetBytes)  ETV
attr interpolationmode  none
attr source  receivedPacketFromUpperLayer
vector 794  CAIN.ueD2DTx[18].nic.mac  CainMessageSent:vector  ETV
attr interpolationmode  none
attr title  "# of Sent CAIN message, vector"
vector 788  CAIN.ueD2DTx[18].nic.mac  sentPacketToLowerLayer:vector(packetBytes)  ETV
attr interpolationmode  none
attr source  sentPacketToLowerLayer
vector 115  CAIN.eNodeB.nic.phy  averageCqiUlvect:vector  ETV
attr source  averageCqiUlvect
attr title  "Average Cqi reported in UL, vector"
attr unit  cqi
vector 690  CAIN.ueD2DTx[15].nic.mac  receivedPacketFromLowerLayer:vector(packetBytes)  ETV
attr interpolationmode  none
attr source  receivedPacketFromLowerLayer
vector 692  CAIN.ueD2DTx[15].nic.mac  sentPacketToLowerLayer:vector(packetBytes)  ETV
attr interpolationmode  none
attr source  sentPacketToLowerLayer
vector 106  CAIN.eNodeB.nic.mac  DistanceSignal:vector  ETV
attr interpolationmode  none
attr title  "Distance to enb, vector"
vector 100  CAIN.eNodeB.nic.mac  CainMessage:vector  ETV
attr interpolationmode  none
attr title  "eNB received CAIN message, vector"
vector 97  CAIN.eNodeB.nic.mac  sentPacketToUpperLayer:vector(packetBytes)  ETV
attr interpolationmode  none
attr source  sentPacketToUpperLayer
vector 99  CAIN.eNodeB.nic.mac  measuredItbs:vector  ETV
attr source  measuredItbs
attr title  "TBS index, vector"
attr unit  ""
vector 696  CAIN.ueD2DTx[15].nic.mac  DropedCainMessage:vector  ETV
attr interpolationmode  none
attr title  "Droped CAIN message due to RB not available, vector"
vector 1541  CAIN.ueD2DTx[6].tcp  tcpRcvQueueBytes  ETV
vector 1528  CAIN.ueD2DTx[6].tcp  "advertised window"  ETV
vector 1527  CAIN.ueD2DTx[6].tcp  "receive window"  ETV
vector 1530  CAIN.ueD2DTx[6].tcp  "sent ack"  ETV
vector 397  CAIN.ueD2DTx[6].nic.pdcpRrc  receivedPacketFromUpperLayer:vector(packetBytes)  ETV
attr interpolationmode  none
attr source  receivedPacketFromUpperLayer
vector 400  CAIN.ueD2DTx[6].nic.pdcpRrc  sentPacketToLowerLayer:vector(packetBytes)  ETV
attr interpolationmode  none
attr source  sentPacketToLowerLayer
vector 401  CAIN.ueD2DTx[6].nic.mac  receivedPacketFromUpperLayer:vector(packetBytes)  ETV
attr interpolationmode  none
attr source  receivedPacketFromUpperLayer
vector 410  CAIN.ueD2DTx[6].nic.mac  CainMessageSent:vector  ETV
attr interpolationmode  none
attr title  "# of Sent CAIN message, vector"
vector 404  CAIN.ueD2DTx[6].nic.mac  sentPacketToLowerLayer:vector(packetBytes)  ETV
attr interpolationmode  none
attr source  sentPacketToLowerLayer
vector 1565  CAIN.ueD2DTx[14].tcp  tcpRcvQueueBytes  ETV
vector 1552  CAIN.ueD2DTx[14].tcp  "advertised window"  ETV
vector 1551  CAIN.ueD2DTx[14].tcp  "receive window"  ETV
vector 1554  CAIN.ueD2DTx[14].tcp  "sent ack"  ETV
vector 653  CAIN.ueD2DTx[14].nic.pdcpRrc  receivedPacketFromUpperLayer:vector(packetBytes)  ETV
attr interpolationmode  none
attr source  receivedPacketFromUpperLayer
vector 656  CAIN.ueD2DTx[14].nic.pdcpRrc  sentPacketToLowerLayer:vector(packetBytes)  ETV
attr interpolationmode  none
attr source  sentPacketToLowerLayer
vector 657  CAIN.ueD2DTx[14].nic.mac  receivedPacketFromUpperLayer:vector(packetBytes)  ETV
attr interpolationmode  none
attr source  receivedPacketFromUpperLayer
vector 667  CAIN.ueD2DTx[14].nic.mac  CainHopMessageSent:vector  ETV
attr interpolationmode  none
attr title  "# of Sent CAIN hop message, vector"
vector 660  CAIN.ueD2DTx[14].nic.mac  sentPacketToLowerLayer:vector(packetBytes)  ETV
attr interpolationmode  none
attr source  sentPacketToLowerLayer
vector 594  CAIN.ueD2DTx[12].nic.mac  receivedPacketFromLowerLayer:vector(packetBytes)  ETV
attr interpolationmode  none
attr source  receivedPacketFromLowerLayer
vector 596  CAIN.ueD2DTx[12].nic.mac  sentPacketToLowerLayer:vector(packetBytes)  ETV
attr interpolationmode  none
attr source  sentPacketToLowerLayer
vector 1589  CAIN.ueD2DTx[12].tcp  tcpRcvQueueBytes  ETV
vector 1576  CAIN.ueD2DTx[12].tcp  "advertised window"  ETV
vector 1575  CAIN.ueD2DTx[12].tcp  "receive window"  ETV
vector 1578  CAIN.ueD2DTx[12].tcp  "sent ack"  ETV
vector 589  CAIN.ueD2DTx[12].nic.pdcpRrc  receivedPacketFromUpperLayer:vector(packetBytes)  ETV
attr interpolationmode  none
attr source  receivedPacketFromUpperLayer
vector 592  CAIN.ueD2DTx[12].nic.pdcpRrc  sentPacketToLowerLayer:vector(packetBytes)  ETV
attr interpolationmode  none
attr source  sentPacketToLowerLayer
vector 593  CAIN.ueD2DTx[12].nic.mac  receivedPacketFromUpperLayer:vector(packetBytes)  ETV
attr interpolationmode  none
attr source  receivedPacketFromUpperLayer
vector 722  CAIN.ueD2DTx[16].nic.mac  receivedPacketFromLowerLayer:vector(packetBytes)  ETV
attr interpolationmode  none
attr source  receivedPacketFromLowerLayer
vector 724  CAIN.ueD2DTx[16].nic.mac  sentPacketToLowerLayer:vector(packetBytes)  ETV
attr interpolationmode  none
attr source  sentPacketToLowerLayer
vector 92  CAIN.eNodeB.nic.pdcpRrc  receivedPacketFromLowerLayer:vector(packetBytes)  ETV
attr interpolationmode  none
attr source  receivedPacketFromLowerLayer
vector 93  CAIN.eNodeB.nic.pdcpRrc  sentPacketToUpperLayer:vector(packetBytes)  ETV
attr interpolationmode  none
attr source  sentPacketToUpperLayer
vector 91  CAIN.eNodeB.nic.pdcpRrc  receivedPacketFromUpperLayer:vector(packetBytes)  ETV
attr interpolationmode  none
attr source  receivedPacketFromUpperLayer
vector 94  CAIN.eNodeB.nic.pdcpRrc  sentPacketToLowerLayer:vector(packetBytes)  ETV
attr interpolationmode  none
attr source  sentPacketToLowerLayer
vector 95  CAIN.eNodeB.nic.mac  receivedPacketFromUpperLayer:vector(packetBytes)  ETV
attr interpolationmode  none
attr source  receivedPacketFromUpperLayer
vector 978  CAIN.ueD2DTx[24].nic.mac  receivedPacketFromLowerLayer:vector(packetBytes)  ETV
attr interpolationmode  none
attr source  receivedPacketFromLowerLayer
vector 980  CAIN.ueD2DTx[24].nic.mac  sentPacketToLowerLayer:vector(packetBytes)  ETV
attr interpolationmode  none
attr source  sentPacketToLowerLayer
vector 600  CAIN.ueD2DTx[12].nic.mac  DropedCainMessage:vector  ETV
attr interpolationmode  none
attr title  "Droped CAIN message due to RB not available, vector"
vector 101  CAIN.eNodeB.nic.mac  CainHopMessage:vector  ETV
attr interpolationmode  none
attr title  "eNB received CAIN hop message, vector"
vector 228  CAIN.ueD2DTx[0].nic.phy  averageCqiDlvect:vector  ETV
attr source  averageCqiDlvect
attr title  "Average Cqi reported in DL, vector"
attr unit  cqi
vector 210  CAIN.ueD2DTx[0].nic.mac  receivedPacketFromLowerLayer:vector(packetBytes)  ETV
attr interpolationmode  none
attr source  receivedPacketFromLowerLayer
vector 985  CAIN.ueD2DTx[24].nic.mac  DropedHopMessage:vector  ETV
attr interpolationmode  none
attr title  "Droped Hop CAIN message due to RB not available, vector"
vector 1613  CAIN.ueD2DTx[2].tcp  tcpRcvQueueBytes  ETV
vector 1600  CAIN.ueD2DTx[2].tcp  "advertised window"  ETV
vector 1599  CAIN.ueD2DTx[2].tcp  "receive window"  ETV
vector 1602  CAIN.ueD2DTx[2].tcp  "sent ack"  ETV
vector 269  CAIN.ueD2DTx[2].nic.pdcpRrc  receivedPacketFromUpperLayer:vector(packetBytes)  ETV
attr interpolationmode  none
attr source  receivedPacketFromUpperLayer
vector 272  CAIN.ueD2DTx[2].nic.pdcpRrc  sentPacketToLowerLayer:vector(packetBytes)  ETV
attr interpolationmode  none
attr source  sentPacketToLowerLayer
vector 273  CAIN.ueD2DTx[2].nic.mac  receivedPacketFromUpperLayer:vector(packetBytes)  ETV
attr interpolationmode  none
attr source  receivedPacketFromUpperLayer
vector 276  CAIN.ueD2DTx[2].nic.mac  sentPacketToLowerLayer:vector(packetBytes)  ETV
attr interpolationmode  none
attr source  sentPacketToLowerLayer
vector 595  CAIN.ueD2DTx[12].nic.mac  sentPacketToUpperLayer:vector(packetBytes)  ETV
attr interpolationmode  none
attr source  sentPacketToUpperLayer
vector 1637  CAIN.ueD2DTx[15].tcp  tcpRcvQueueBytes  ETV
vector 1624  CAIN.ueD2DTx[15].tcp  "advertised window"  ETV
vector 1623  CAIN.ueD2DTx[15].tcp  "receive window"  ETV
vector 1626  CAIN.ueD2DTx[15].tcp  "sent ack"  ETV
vector 685  CAIN.ueD2DTx[15].nic.pdcpRrc  receivedPacketFromUpperLayer:vector(packetBytes)  ETV
attr interpolationmode  none
attr source  receivedPacketFromUpperLayer
vector 688  CAIN.ueD2DTx[15].nic.pdcpRrc  sentPacketToLowerLayer:vector(packetBytes)  ETV
attr interpolationmode  none
attr source  sentPacketToLowerLayer
vector 689  CAIN.ueD2DTx[15].nic.mac  receivedPacketFromUpperLayer:vector(packetBytes)  ETV
attr interpolationmode  none
attr source  receivedPacketFromUpperLayer
vector 212  CAIN.ueD2DTx[0].nic.mac  sentPacketToLowerLayer:vector(packetBytes)  ETV
attr interpolationmode  none
attr source  sentPacketToLowerLayer
vector 211  CAIN.ueD2DTx[0].nic.mac  sentPacketToUpperLayer:vector(packetBytes)  ETV
attr interpolationmode  none
attr source  sentPacketToUpperLayer
vector 206  CAIN.ueD2DTx[0].nic.pdcpRrc  receivedPacketFromLowerLayer:vector(packetBytes)  ETV
attr interpolationmode  none
attr source  receivedPacketFromLowerLayer
vector 207  CAIN.ueD2DTx[0].nic.pdcpRrc  sentPacketToUpperLayer:vector(packetBytes)  ETV
attr interpolationmode  none
attr source  sentPacketToUpperLayer
vector 274  CAIN.ueD2DTx[2].nic.mac  receivedPacketFromLowerLayer:vector(packetBytes)  ETV
attr interpolationmode  none
attr source  receivedPacketFromLowerLayer
vector 108  CAIN.eNodeB.nic.mac  ServedDevs:vector  ETV
attr interpolationmode  none
attr title  "# of devices served on cain forwarding, vector"
vector 1661  CAIN.ueD2DTx[3].tcp  tcpRcvQueueBytes  ETV
vector 1648  CAIN.ueD2DTx[3].tcp  "advertised window"  ETV
vector 1647  CAIN.ueD2DTx[3].tcp  "receive window"  ETV
vector 1650  CAIN.ueD2DTx[3].tcp  "sent ack"  ETV
vector 301  CAIN.ueD2DTx[3].nic.pdcpRrc  receivedPacketFromUpperLayer:vector(packetBytes)  ETV
attr interpolationmode  none
attr source  receivedPacketFromUpperLayer
vector 304  CAIN.ueD2DTx[3].nic.pdcpRrc  sentPacketToLowerLayer:vector(packetBytes)  ETV
attr interpolationmode  none
attr source  sentPacketToLowerLayer
vector 305  CAIN.ueD2DTx[3].nic.mac  receivedPacketFromUpperLayer:vector(packetBytes)  ETV
attr interpolationmode  none
attr source  receivedPacketFromUpperLayer
vector 275  CAIN.ueD2DTx[2].nic.mac  sentPacketToUpperLayer:vector(packetBytes)  ETV
attr interpolationmode  none
attr source  sentPacketToUpperLayer
vector 308  CAIN.ueD2DTx[3].nic.mac  sentPacketToLowerLayer:vector(packetBytes)  ETV
attr interpolationmode  none
attr source  sentPacketToLowerLayer
vector 411  CAIN.ueD2DTx[6].nic.mac  CainHopMessageSent:vector  ETV
attr interpolationmode  none
attr title  "# of Sent CAIN hop message, vector"
vector 786  CAIN.ueD2DTx[18].nic.mac  receivedPacketFromLowerLayer:vector(packetBytes)  ETV
attr interpolationmode  none
attr source  receivedPacketFromLowerLayer
vector 691  CAIN.ueD2DTx[15].nic.mac  sentPacketToUpperLayer:vector(packetBytes)  ETV
attr interpolationmode  none
attr source  sentPacketToUpperLayer
vector 306  CAIN.ueD2DTx[3].nic.mac  receivedPacketFromLowerLayer:vector(packetBytes)  ETV
attr interpolationmode  none
attr source  receivedPacketFromLowerLayer
vector 1685  CAIN.ueD2DTx[8].tcp  tcpRcvQueueBytes  ETV
vector 1672  CAIN.ueD2DTx[8].tcp  "advertised window"  ETV
vector 1671  CAIN.ueD2DTx[8].tcp  "receive window"  ETV
vector 1674  CAIN.ueD2DTx[8].tcp  "sent ack"  ETV
vector 461  CAIN.ueD2DTx[8].nic.pdcpRrc  receivedPacketFromUpperLayer:vector(packetBytes)  ETV
attr interpolationmode  none
attr source  receivedPacketFromUpperLayer
vector 464  CAIN.ueD2DTx[8].nic.pdcpRrc  sentPacketToLowerLayer:vector(packetBytes)  ETV
attr interpolationmode  none
attr source  sentPacketToLowerLayer
vector 465  CAIN.ueD2DTx[8].nic.mac  receivedPacketFromUpperLayer:vector(packetBytes)  ETV
attr interpolationmode  none
attr source  receivedPacketFromUpperLayer
vector 307  CAIN.ueD2DTx[3].nic.mac  sentPacketToUpperLayer:vector(packetBytes)  ETV
attr interpolationmode  none
attr source  sentPacketToUpperLayer
vector 468  CAIN.ueD2DTx[8].nic.mac  sentPacketToLowerLayer:vector(packetBytes)  ETV
attr interpolationmode  none
attr source  sentPacketToLowerLayer
vector 795  CAIN.ueD2DTx[18].nic.mac  CainHopMessageSent:vector  ETV
attr interpolationmode  none
attr title  "# of Sent CAIN hop message, vector"
vector 109  CAIN.eNodeB.nic.mac  ServedHopDevs:vector  ETV
attr interpolationmode  none
attr title  "# of devices served on hop forwarding, vector"
vector 466  CAIN.ueD2DTx[8].nic.mac  receivedPacketFromLowerLayer:vector(packetBytes)  ETV
attr interpolationmode  none
attr source  receivedPacketFromLowerLayer
vector 467  CAIN.ueD2DTx[8].nic.mac  sentPacketToUpperLayer:vector(packetBytes)  ETV
attr interpolationmode  none
attr source  sentPacketToUpperLayer
vector 1709  CAIN.ueD2DTx[23].tcp  tcpRcvQueueBytes  ETV
vector 1696  CAIN.ueD2DTx[23].tcp  "advertised window"  ETV
vector 1695  CAIN.ueD2DTx[23].tcp  "receive window"  ETV
vector 1698  CAIN.ueD2DTx[23].tcp  "sent ack"  ETV
vector 941  CAIN.ueD2DTx[23].nic.pdcpRrc  receivedPacketFromUpperLayer:vector(packetBytes)  ETV
attr interpolationmode  none
attr source  receivedPacketFromUpperLayer
vector 944  CAIN.ueD2DTx[23].nic.pdcpRrc  sentPacketToLowerLayer:vector(packetBytes)  ETV
attr interpolationmode  none
attr source  sentPacketToLowerLayer
vector 945  CAIN.ueD2DTx[23].nic.mac  receivedPacketFromUpperLayer:vector(packetBytes)  ETV
attr interpolationmode  none
attr source  receivedPacketFromUpperLayer
vector 954  CAIN.ueD2DTx[23].nic.mac  CainMessageSent:vector  ETV
attr interpolationmode  none
attr title  "# of Sent CAIN message, vector"
vector 948  CAIN.ueD2DTx[23].nic.mac  sentPacketToLowerLayer:vector(packetBytes)  ETV
attr interpolationmode  none
attr source  sentPacketToLowerLayer
vector 1733  CAIN.ueD2DTx[11].tcp  tcpRcvQueueBytes  ETV
vector 1720  CAIN.ueD2DTx[11].tcp  "advertised window"  ETV
vector 1719  CAIN.ueD2DTx[11].tcp  "receive window"  ETV
vector 1722  CAIN.ueD2DTx[11].tcp  "sent ack"  ETV
vector 557  CAIN.ueD2DTx[11].nic.pdcpRrc  receivedPacketFromUpperLayer:vector(packetBytes)  ETV
attr interpolationmode  none
attr source  receivedPacketFromUpperLayer
vector 560  CAIN.ueD2DTx[11].nic.pdcpRrc  sentPacketToLowerLayer:vector(packetBytes)  ETV
attr interpolationmode  none
attr source  sentPacketToLowerLayer
vector 561  CAIN.ueD2DTx[11].nic.mac  receivedPacketFromUpperLayer:vector(packetBytes)  ETV
attr interpolationmode  none
attr source  receivedPacketFromUpperLayer
vector 571  CAIN.ueD2DTx[11].nic.mac  CainHopMessageSent:vector  ETV
attr interpolationmode  none
attr title  "# of Sent CAIN hop message, vector"
vector 564  CAIN.ueD2DTx[11].nic.mac  sentPacketToLowerLayer:vector(packetBytes)  ETV
attr interpolationmode  none
attr source  sentPacketToLowerLayer
vector 242  CAIN.ueD2DTx[1].nic.mac  receivedPacketFromLowerLayer:vector(packetBytes)  ETV
attr interpolationmode  none
attr source  receivedPacketFromLowerLayer
vector 244  CAIN.ueD2DTx[1].nic.mac  sentPacketToLowerLayer:vector(packetBytes)  ETV
attr interpolationmode  none
attr source  sentPacketToLowerLayer
vector 248  CAIN.ueD2DTx[1].nic.mac  DropedCainMessage:vector  ETV
attr interpolationmode  none
attr title  "Droped CAIN message due to RB not available, vector"
vector 1757  CAIN.ueD2DTx[7].tcp  tcpRcvQueueBytes  ETV
vector 1744  CAIN.ueD2DTx[7].tcp  "advertised window"  ETV
vector 1743  CAIN.ueD2DTx[7].tcp  "receive window"  ETV
vector 1746  CAIN.ueD2DTx[7].tcp  "sent ack"  ETV
vector 429  CAIN.ueD2DTx[7].nic.pdcpRrc  receivedPacketFromUpperLayer:vector(packetBytes)  ETV
attr interpolationmode  none
attr source  receivedPacketFromUpperLayer
vector 432  CAIN.ueD2DTx[7].nic.pdcpRrc  sentPacketToLowerLayer:vector(packetBytes)  ETV
attr interpolationmode  none
attr source  sentPacketToLowerLayer
vector 433  CAIN.ueD2DTx[7].nic.mac  receivedPacketFromUpperLayer:vector(packetBytes)  ETV
attr interpolationmode  none
attr source  receivedPacketFromUpperLayer
vector 442  CAIN.ueD2DTx[7].nic.mac  CainMessageSent:vector  ETV
attr interpolationmode  none
attr title  "# of Sent CAIN message, vector"
vector 436  CAIN.ueD2DTx[7].nic.mac  sentPacketToLowerLayer:vector(packetBytes)  ETV
attr interpolationmode  none
attr source  sentPacketToLowerLayer
vector 1461  CAIN.eNodeB1.sctp  "SendQueue of Association 5"  ETV
vector 1225  CAIN.eNodeB1.sctp  "TSN Sent 5:10.0.5.1"  ETV
vector 1232  CAIN.eNodeB1.sctp  "Outstanding Bytes 5:10.0.5.1"  ETV
vector 1030  CAIN.eNodeB1.sctp  "Outstanding Bytes 4:Total"  ETV
vector 1231  CAIN.eNodeB1.sctp  "Queued Sent Bytes 5:10.0.5.1"  ETV
vector 1029  CAIN.eNodeB1.sctp  "Queued Sent Bytes 4:Total"  ETV
vector 1074  CAIN.eNodeB.sctp  "TSN Received 1:10.0.5.2"  ETV
vector 1050  CAIN.eNodeB.sctp  "Queued Received Bytes 1:Total"  ETV
vector 1046  CAIN.eNodeB.sctp  "Advertised Receiver Window 1"  ETV
vector 1055  CAIN.eNodeB.sctp  "Number of Total Gap Blocks Stored 1"  ETV
vector 1056  CAIN.eNodeB.sctp  "Number of Revokable Gap Blocks Stored 1"  ETV
vector 1057  CAIN.eNodeB.sctp  "Number of Non-Revokable Gap Blocks Stored 1"  ETV
vector 1058  CAIN.eNodeB.sctp  "Number of Duplicate TSNs Stored 1"  ETV
vector 1062  CAIN.eNodeB.sctp  "Length of SACK Sent 1"  ETV
vector 1059  CAIN.eNodeB.sctp  "Number of Revokable Gap Blocks Sent 1"  ETV
vector 1060  CAIN.eNodeB.sctp  "Number of Non-Revokable Gap Blocks Sent 1"  ETV
vector 1061  CAIN.eNodeB.sctp  "Number of Duplicate TSNs Sent 1"  ETV
vector 1066  CAIN.eNodeB.sctp  "End to End Delay of Association 1"  ETV
vector 141  CAIN.eNodeB.x2App[0].client  rcvdPk:vector(packetBytes)  ETV
attr interpolationmode  none
attr source  rcvdPk
attr title  "packets received, vector(packetBytes)"
vector 1460  CAIN.eNodeB1.sctp  "Number of Gap Blocks in Last SACK of Association 5"  ETV
vector 1031  CAIN.eNodeB1.sctp  "Number of Revokable Gap Blocks in SACK 4"  ETV
vector 1032  CAIN.eNodeB1.sctp  "Number of Non-Revokable Gap Blocks in SACK 4"  ETV
vector 1242  CAIN.eNodeB1.sctp  "TSN Acked CumAck 5:10.0.5.1"  ETV
vector 1208  CAIN.eNodeB1.sctp  "Number of Gap Acked Chunks in Last SACK 5:10.0.2.2"  ETV
vector 1209  CAIN.eNodeB1.sctp  "Number of Non-Revokable Gap Acked Chunks in Last SACK 5:10.0.2.2"  ETV
vector 1210  CAIN.eNodeB1.sctp  "Number of Gap Missed Chunks in Last SACK 5:10.0.2.2"  ETV
vector 1181  CAIN.eNodeB1.sctp  "Number of Gap Acked Chunks in Last SACK 5:10.0.4.1"  ETV
vector 1182  CAIN.eNodeB1.sctp  "Number of Non-Revokable Gap Acked Chunks in Last SACK 5:10.0.4.1"  ETV
vector 1183  CAIN.eNodeB1.sctp  "Number of Gap Missed Chunks in Last SACK 5:10.0.4.1"  ETV
vector 1235  CAIN.eNodeB1.sctp  "Number of Gap Acked Chunks in Last SACK 5:10.0.5.1"  ETV
vector 1236  CAIN.eNodeB1.sctp  "Number of Non-Revokable Gap Acked Chunks in Last SACK 5:10.0.5.1"  ETV
vector 1237  CAIN.eNodeB1.sctp  "Number of Gap Missed Chunks in Last SACK 5:10.0.5.1"  ETV
vector 1041  CAIN.eNodeB1.sctp  "Arwnd in Last SACK 4"  ETV
vector 1244  CAIN.eNodeB1.sctp  "TSN PseudoCumAck 5:10.0.5.1"  ETV
vector 1245  CAIN.eNodeB1.sctp  "TSN RTXPseudoCumAck 5:10.0.5.1"  ETV
vector 1238  CAIN.eNodeB1.sctp  "Partial Bytes Acked 5:10.0.5.1"  ETV
vector 1781  CAIN.ueD2DTx[24].tcp  tcpRcvQueueBytes  ETV
vector 1768  CAIN.ueD2DTx[24].tcp  "advertised window"  ETV
vector 1767  CAIN.ueD2DTx[24].tcp  "receive window"  ETV
vector 1770  CAIN.ueD2DTx[24].tcp  "sent ack"  ETV
vector 973  CAIN.ueD2DTx[24].nic.pdcpRrc  receivedPacketFromUpperLayer:vector(packetBytes)  ETV
attr interpolationmode  none
attr source  receivedPacketFromUpperLayer
vector 976  CAIN.ueD2DTx[24].nic.pdcpRrc  sentPacketToLowerLayer:vector(packetBytes)  ETV
attr interpolationmode  none
attr source  sentPacketToLowerLayer
vector 977  CAIN.ueD2DTx[24].nic.mac  receivedPacketFromUpperLayer:vector(packetBytes)  ETV
attr interpolationmode  none
attr source  receivedPacketFromUpperLayer
vector 1805  CAIN.ueD2DTx[4].tcp  tcpRcvQueueBytes  ETV
vector 1792  CAIN.ueD2DTx[4].tcp  "advertised window"  ETV
vector 1791  CAIN.ueD2DTx[4].tcp  "receive window"  ETV
vector 1794  CAIN.ueD2DTx[4].tcp  "sent ack"  ETV
vector 333  CAIN.ueD2DTx[4].nic.pdcpRrc  receivedPacketFromUpperLayer:vector(packetBytes)  ETV
attr interpolationmode  none
attr source  receivedPacketFromUpperLayer
vector 336  CAIN.ueD2DTx[4].nic.pdcpRrc  sentPacketToLowerLayer:vector(packetBytes)  ETV
attr interpolationmode  none
attr source  sentPacketToLowerLayer
vector 337  CAIN.ueD2DTx[4].nic.mac  receivedPacketFromUpperLayer:vector(packetBytes)  ETV
attr interpolationmode  none
attr source  receivedPacketFromUpperLayer
vector 340  CAIN.ueD2DTx[4].nic.mac  sentPacketToLowerLayer:vector(packetBytes)  ETV
attr interpolationmode  none
attr source  sentPacketToLowerLayer
vector 154  CAIN.eNodeB1.nic.mac  receivedPacketFromLowerLayer:vector(packetBytes)  ETV
attr interpolationmode  none
attr source  receivedPacketFromLowerLayer
vector 169  CAIN.eNodeB1.nic.mac  racpkt:vector  ETV
attr interpolationmode  none
attr title  "eNB received racpkt message, vector"
vector 170  CAIN.eNodeB1.nic.mac  racDistanceSignal:vector  ETV
attr interpolationmode  none
attr title  "Rac distance to enb, vector"
vector 171  CAIN.eNodeB1.nic.mac  racServedDevsSignal:vector  ETV
attr interpolationmode  none
attr title  "# of devices served on rac arriavall, vector"
vector 156  CAIN.eNodeB1.nic.mac  sentPacketToLowerLayer:vector(packetBytes)  ETV
attr interpolationmode  none
attr source  sentPacketToLowerLayer
vector 338  CAIN.ueD2DTx[4].nic.mac  receivedPacketFromLowerLayer:vector(packetBytes)  ETV
attr interpolationmode  none
attr source  receivedPacketFromLowerLayer
vector 339  CAIN.ueD2DTx[4].nic.mac  sentPacketToUpperLayer:vector(packetBytes)  ETV
attr interpolationmode  none
attr source  sentPacketToUpperLayer
vector 1829  CAIN.ueD2DTx[16].tcp  tcpRcvQueueBytes  ETV
vector 1816  CAIN.ueD2DTx[16].tcp  "advertised window"  ETV
vector 1815  CAIN.ueD2DTx[16].tcp  "receive window"  ETV
vector 1818  CAIN.ueD2DTx[16].tcp  "sent ack"  ETV
vector 717  CAIN.ueD2DTx[16].nic.pdcpRrc  receivedPacketFromUpperLayer:vector(packetBytes)  ETV
attr interpolationmode  none
attr source  receivedPacketFromUpperLayer
vector 720  CAIN.ueD2DTx[16].nic.pdcpRrc  sentPacketToLowerLayer:vector(packetBytes)  ETV
attr interpolationmode  none
attr source  sentPacketToLowerLayer
vector 721  CAIN.ueD2DTx[16].nic.mac  receivedPacketFromUpperLayer:vector(packetBytes)  ETV
attr interpolationmode  none
attr source  receivedPacketFromUpperLayer
vector 1853  CAIN.ueD2DTx[1].tcp  tcpRcvQueueBytes  ETV
vector 1840  CAIN.ueD2DTx[1].tcp  "advertised window"  ETV
vector 1839  CAIN.ueD2DTx[1].tcp  "receive window"  ETV
vector 1842  CAIN.ueD2DTx[1].tcp  "sent ack"  ETV
vector 237  CAIN.ueD2DTx[1].nic.pdcpRrc  receivedPacketFromUpperLayer:vector(packetBytes)  ETV
attr interpolationmode  none
attr source  receivedPacketFromUpperLayer
vector 240  CAIN.ueD2DTx[1].nic.pdcpRrc  sentPacketToLowerLayer:vector(packetBytes)  ETV
attr interpolationmode  none
attr source  sentPacketToLowerLayer
vector 241  CAIN.ueD2DTx[1].nic.mac  receivedPacketFromUpperLayer:vector(packetBytes)  ETV
attr interpolationmode  none
attr source  receivedPacketFromUpperLayer
vector 243  CAIN.ueD2DTx[1].nic.mac  sentPacketToUpperLayer:vector(packetBytes)  ETV
attr interpolationmode  none
attr source  sentPacketToUpperLayer
vector 1877  CAIN.ueD2DTx[20].tcp  tcpRcvQueueBytes  ETV
vector 1864  CAIN.ueD2DTx[20].tcp  "advertised window"  ETV
vector 1863  CAIN.ueD2DTx[20].tcp  "receive window"  ETV
vector 1866  CAIN.ueD2DTx[20].tcp  "sent ack"  ETV
vector 845  CAIN.ueD2DTx[20].nic.pdcpRrc  receivedPacketFromUpperLayer:vector(packetBytes)  ETV
attr interpolationmode  none
attr source  receivedPacketFromUpperLayer
vector 848  CAIN.ueD2DTx[20].nic.pdcpRrc  sentPacketToLowerLayer:vector(packetBytes)  ETV
attr interpolationmode  none
attr source  sentPacketToLowerLayer
vector 849  CAIN.ueD2DTx[20].nic.mac  receivedPacketFromUpperLayer:vector(packetBytes)  ETV
attr interpolationmode  none
attr source  receivedPacketFromUpperLayer
vector 859  CAIN.ueD2DTx[20].nic.mac  CainHopMessageSent:vector  ETV
attr interpolationmode  none
attr title  "# of Sent CAIN hop message, vector"
vector 852  CAIN.ueD2DTx[20].nic.mac  sentPacketToLowerLayer:vector(packetBytes)  ETV
attr interpolationmode  none
attr source  sentPacketToLowerLayer
vector 1901  CAIN.ueD2DTx[21].tcp  tcpRcvQueueBytes  ETV
vector 1888  CAIN.ueD2DTx[21].tcp  "advertised window"  ETV
vector 1887  CAIN.ueD2DTx[21].tcp  "receive window"  ETV
vector 1890  CAIN.ueD2DTx[21].tcp  "sent ack"  ETV
vector 877  CAIN.ueD2DTx[21].nic.pdcpRrc  receivedPacketFromUpperLayer:vector(packetBytes)  ETV
attr interpolationmode  none
attr source  receivedPacketFromUpperLayer
vector 880  CAIN.ueD2DTx[21].nic.pdcpRrc  sentPacketToLowerLayer:vector(packetBytes)  ETV
attr interpolationmode  none
attr source  sentPacketToLowerLayer
vector 881  CAIN.ueD2DTx[21].nic.mac  receivedPacketFromUpperLayer:vector(packetBytes)  ETV
attr interpolationmode  none
attr source  receivedPacketFromUpperLayer
vector 891  CAIN.ueD2DTx[21].nic.mac  CainHopMessageSent:vector  ETV
attr interpolationmode  none
attr title  "# of Sent CAIN hop message, vector"
vector 884  CAIN.ueD2DTx[21].nic.mac  sentPacketToLowerLayer:vector(packetBytes)  ETV
attr interpolationmode  none
attr source  sentPacketToLowerLayer
vector 370  CAIN.ueD2DTx[5].nic.mac  receivedPacketFromLowerLayer:vector(packetBytes)  ETV
attr interpolationmode  none
attr source  receivedPacketFromLowerLayer
vector 372  CAIN.ueD2DTx[5].nic.mac  sentPacketToLowerLayer:vector(packetBytes)  ETV
attr interpolationmode  none
attr source  sentPacketToLowerLayer
vector 1925  CAIN.ueD2DTx[9].tcp  tcpRcvQueueBytes  ETV
vector 1912  CAIN.ueD2DTx[9].tcp  "advertised window"  ETV
vector 1911  CAIN.ueD2DTx[9].tcp  "receive window"  ETV
vector 1914  CAIN.ueD2DTx[9].tcp  "sent ack"  ETV
vector 493  CAIN.ueD2DTx[9].nic.pdcpRrc  receivedPacketFromUpperLayer:vector(packetBytes)  ETV
attr interpolationmode  none
attr source  receivedPacketFromUpperLayer
vector 496  CAIN.ueD2DTx[9].nic.pdcpRrc  sentPacketToLowerLayer:vector(packetBytes)  ETV
attr interpolationmode  none
attr source  sentPacketToLowerLayer
vector 497  CAIN.ueD2DTx[9].nic.mac  receivedPacketFromUpperLayer:vector(packetBytes)  ETV
attr interpolationmode  none
attr source  receivedPacketFromUpperLayer
vector 506  CAIN.ueD2DTx[9].nic.mac  CainMessageSent:vector  ETV
attr interpolationmode  none
attr title  "# of Sent CAIN message, vector"
vector 500  CAIN.ueD2DTx[9].nic.mac  sentPacketToLowerLayer:vector(packetBytes)  ETV
attr interpolationmode  none
attr source  sentPacketToLowerLayer
vector 914  CAIN.ueD2DTx[22].nic.mac  receivedPacketFromLowerLayer:vector(packetBytes)  ETV
attr interpolationmode  none
attr source  receivedPacketFromLowerLayer
vector 916  CAIN.ueD2DTx[22].nic.mac  sentPacketToLowerLayer:vector(packetBytes)  ETV
attr interpolationmode  none
attr source  sentPacketToLowerLayer
vector 1949  CAIN.ueD2DTx[10].tcp  tcpRcvQueueBytes  ETV
vector 1936  CAIN.ueD2DTx[10].tcp  "advertised window"  ETV
vector 1935  CAIN.ueD2DTx[10].tcp  "receive window"  ETV
vector 1938  CAIN.ueD2DTx[10].tcp  "sent ack"  ETV
vector 525  CAIN.ueD2DTx[10].nic.pdcpRrc  receivedPacketFromUpperLayer:vector(packetBytes)  ETV
attr interpolationmode  none
attr source  receivedPacketFromUpperLayer
vector 528  CAIN.ueD2DTx[10].nic.pdcpRrc  sentPacketToLowerLayer:vector(packetBytes)  ETV
attr interpolationmode  none
attr source  sentPacketToLowerLayer
vector 529  CAIN.ueD2DTx[10].nic.mac  receivedPacketFromUpperLayer:vector(packetBytes)  ETV
attr interpolationmode  none
attr source  receivedPacketFromUpperLayer
vector 538  CAIN.ueD2DTx[10].nic.mac  CainMessageSent:vector  ETV
attr interpolationmode  none
attr title  "# of Sent CAIN message, vector"
vector 532  CAIN.ueD2DTx[10].nic.mac  sentPacketToLowerLayer:vector(packetBytes)  ETV
attr interpolationmode  none
attr source  sentPacketToLowerLayer
vector 920  CAIN.ueD2DTx[22].nic.mac  DropedCainMessage:vector  ETV
attr interpolationmode  none
attr title  "Droped CAIN message due to RB not available, vector"
vector 1973  CAIN.ueD2DTx[17].tcp  tcpRcvQueueBytes  ETV
vector 1960  CAIN.ueD2DTx[17].tcp  "advertised window"  ETV
vector 1959  CAIN.ueD2DTx[17].tcp  "receive window"  ETV
vector 1962  CAIN.ueD2DTx[17].tcp  "sent ack"  ETV
vector 749  CAIN.ueD2DTx[17].nic.pdcpRrc  receivedPacketFromUpperLayer:vector(packetBytes)  ETV
attr interpolationmode  none
attr source  receivedPacketFromUpperLayer
vector 752  CAIN.ueD2DTx[17].nic.pdcpRrc  sentPacketToLowerLayer:vector(packetBytes)  ETV
attr interpolationmode  none
attr source  sentPacketToLowerLayer
vector 753  CAIN.ueD2DTx[17].nic.mac  receivedPacketFromUpperLayer:vector(packetBytes)  ETV
attr interpolationmode  none
attr source  receivedPacketFromUpperLayer
vector 1997  CAIN.ueD2DTx[0].tcp  tcpRcvQueueBytes  ETV
vector 1984  CAIN.ueD2DTx[0].tcp  "advertised window"  ETV
vector 1983  CAIN.ueD2DTx[0].tcp  "receive window"  ETV
vector 1986  CAIN.ueD2DTx[0].tcp  "sent ack"  ETV
vector 205  CAIN.ueD2DTx[0].nic.pdcpRrc  receivedPacketFromUpperLayer:vector(packetBytes)  ETV
attr interpolationmode  none
attr source  receivedPacketFromUpperLayer
vector 208  CAIN.ueD2DTx[0].nic.pdcpRrc  sentPacketToLowerLayer:vector(packetBytes)  ETV
attr interpolationmode  none
attr source  sentPacketToLowerLayer
vector 209  CAIN.ueD2DTx[0].nic.mac  receivedPacketFromUpperLayer:vector(packetBytes)  ETV
attr interpolationmode  none
attr source  receivedPacketFromUpperLayer
vector 219  CAIN.ueD2DTx[0].nic.mac  CainHopMessageSent:vector  ETV
attr interpolationmode  none
attr title  "# of Sent CAIN hop message, vector"
vector 762  CAIN.ueD2DTx[17].nic.mac  CainMessageSent:vector  ETV
attr interpolationmode  none
attr title  "# of Sent CAIN message, vector"
vector 756  CAIN.ueD2DTx[17].nic.mac  sentPacketToLowerLayer:vector(packetBytes)  ETV
attr interpolationmode  none
attr source  sentPacketToLowerLayer
vector 530  CAIN.ueD2DTx[10].nic.mac  receivedPacketFromLowerLayer:vector(packetBytes)  ETV
attr interpolationmode  none
attr source  receivedPacketFromLowerLayer
vector 2021  CAIN.ueD2DTx[19].tcp  tcpRcvQueueBytes  ETV
vector 2008  CAIN.ueD2DTx[19].tcp  "advertised window"  ETV
vector 2007  CAIN.ueD2DTx[19].tcp  "receive window"  ETV
vector 2010  CAIN.ueD2DTx[19].tcp  "sent ack"  ETV
vector 813  CAIN.ueD2DTx[19].nic.pdcpRrc  receivedPacketFromUpperLayer:vector(packetBytes)  ETV
attr interpolationmode  none
attr source  receivedPacketFromUpperLayer
vector 816  CAIN.ueD2DTx[19].nic.pdcpRrc  sentPacketToLowerLayer:vector(packetBytes)  ETV
attr interpolationmode  none
attr source  sentPacketToLowerLayer
vector 817  CAIN.ueD2DTx[19].nic.mac  receivedPacketFromUpperLayer:vector(packetBytes)  ETV
attr interpolationmode  none
attr source  receivedPacketFromUpperLayer
vector 2045  CAIN.ueD2DTx[5].tcp  tcpRcvQueueBytes  ETV
vector 2032  CAIN.ueD2DTx[5].tcp  "advertised window"  ETV
vector 2031  CAIN.ueD2DTx[5].tcp  "receive window"  ETV
vector 2034  CAIN.ueD2DTx[5].tcp  "sent ack"  ETV
vector 365  CAIN.ueD2DTx[5].nic.pdcpRrc  receivedPacketFromUpperLayer:vector(packetBytes)  ETV
attr interpolationmode  none
attr source  receivedPacketFromUpperLayer
vector 368  CAIN.ueD2DTx[5].nic.pdcpRrc  sentPacketToLowerLayer:vector(packetBytes)  ETV
attr interpolationmode  none
attr source  sentPacketToLowerLayer
vector 369  CAIN.ueD2DTx[5].nic.mac  receivedPacketFromUpperLayer:vector(packetBytes)  ETV
attr interpolationmode  none
attr source  receivedPacketFromUpperLayer
vector 379  CAIN.ueD2DTx[5].nic.mac  CainHopMessageSent:vector  ETV
attr interpolationmode  none
attr title  "# of Sent CAIN hop message, vector"
vector 827  CAIN.ueD2DTx[19].nic.mac  CainHopMessageSent:vector  ETV
attr interpolationmode  none
attr title  "# of Sent CAIN hop message, vector"
vector 820  CAIN.ueD2DTx[19].nic.mac  sentPacketToLowerLayer:vector(packetBytes)  ETV
attr interpolationmode  none
attr source  sentPacketToLowerLayer
vector 2069  CAIN.ueD2DTx[22].tcp  tcpRcvQueueBytes  ETV
vector 2056  CAIN.ueD2DTx[22].tcp  "advertised window"  ETV
vector 2055  CAIN.ueD2DTx[22].tcp  "receive window"  ETV
vector 2058  CAIN.ueD2DTx[22].tcp  "sent ack"  ETV
vector 909  CAIN.ueD2DTx[22].nic.pdcpRrc  receivedPacketFromUpperLayer:vector(packetBytes)  ETV
attr interpolationmode  none
attr source  receivedPacketFromUpperLayer
vector 912  CAIN.ueD2DTx[22].nic.pdcpRrc  sentPacketToLowerLayer:vector(packetBytes)  ETV
attr interpolationmode  none
attr source  sentPacketToLowerLayer
vector 913  CAIN.ueD2DTx[22].nic.mac  receivedPacketFromUpperLayer:vector(packetBytes)  ETV
attr interpolationmode  none
attr source  receivedPacketFromUpperLayer
vector 915  CAIN.ueD2DTx[22].nic.mac  sentPacketToUpperLayer:vector(packetBytes)  ETV
attr interpolationmode  none
attr source  sentPacketToUpperLayer
vector 507  CAIN.ueD2DTx[9].nic.mac  CainHopMessageSent:vector  ETV
attr interpolationmode  none
attr title  "# of Sent CAIN hop message, vector"
vector 763  CAIN.ueD2DTx[17].nic.mac  CainHopMessageSent:vector  ETV
attr interpolationmode  none
attr title  "# of Sent CAIN hop message, vector"
vector 946  CAIN.ueD2DTx[23].nic.mac  receivedPacketFromLowerLayer:vector(packetBytes)  ETV
attr interpolationmode  none
attr source  receivedPacketFromLowerLayer
vector 434  CAIN.ueD2DTx[7].nic.mac  receivedPacketFromLowerLayer:vector(packetBytes)  ETV
attr interpolationmode  none
attr source  receivedPacketFromLowerLayer
vector 539  CAIN.ueD2DTx[10].nic.mac  CainHopMessageSent:vector  ETV
attr interpolationmode  none
attr title  "# of Sent CAIN hop message, vector"
vector 443  CAIN.ueD2DTx[7].nic.mac  CainHopMessageSent:vector  ETV
attr interpolationmode  none
attr title  "# of Sent CAIN hop message, vector"
vector 979  CAIN.ueD2DTx[24].nic.mac  sentPacketToUpperLayer:vector(packetBytes)  ETV
attr interpolationmode  none
attr source  sentPacketToUpperLayer
vector 173  CAIN.eNodeB1.nic.phy  averageCqiUlvect:vector  ETV
attr source  averageCqiUlvect
attr title  "Average Cqi reported in UL, vector"
attr unit  cqi
vector 155  CAIN.eNodeB1.nic.mac  sentPacketToUpperLayer:vector(packetBytes)  ETV
attr interpolationmode  none
attr source  sentPacketToUpperLayer
vector 157  CAIN.eNodeB1.nic.mac  measuredItbs:vector  ETV
attr source  measuredItbs
attr title  "TBS index, vector"
attr unit  ""
vector 150  CAIN.eNodeB1.nic.pdcpRrc  receivedPacketFromLowerLayer:vector(packetBytes)  ETV
attr interpolationmode  none
attr source  receivedPacketFromLowerLayer
vector 151  CAIN.eNodeB1.nic.pdcpRrc  sentPacketToUpperLayer:vector(packetBytes)  ETV
attr interpolationmode  none
attr source  sentPacketToUpperLayer
vector 144  CAIN.eNodeB1.udp  sentPk:vector(packetBytes)  ETV
attr interpolationmode  none
attr source  sentPk
attr title  "packets sent, vector(packetBytes)"
vector 175  CAIN.eNodeB1.pppIf.queue  rcvdPk:vector(packetBytes)  ETV
attr interpolationmode  none
attr title  "received packets, vector(packetBytes)"
vector 177  CAIN.eNodeB1.pppIf.queue  queueingTime:vector  ETV
attr interpolationmode  none
attr title  "queueing time, vector"
vector 184  CAIN.eNodeB1.pppIf.ppp  rcvdPkFromHL:vector(packetBytes)  ETV
attr interpolationmode  none
attr source  packetReceivedFromUpper
attr title  "packets received from higher layer, vector(packetBytes)"
vector 180  CAIN.eNodeB1.pppIf.ppp  txPk:vector(packetBytes)  ETV
attr interpolationmode  none
attr source  packetSentToLower
attr title  "packets transmitted, vector(packetBytes)"
vector 70  CAIN.pgw.ppp[1].ppp  rxPkOk:vector(packetBytes)  ETV
attr interpolationmode  none
attr source  rxPkOk
attr title  "packets received OK, vector(packetBytes)"
vector 74  CAIN.pgw.ppp[1].ppp  passedUpPk:vector(packetBytes)  ETV
attr interpolationmode  none
attr source  packetSentToUpper
attr title  "packets passed to higher layer, vector(packetBytes)"
vector 44  CAIN.pgw.udp  rcvdPk:vector(packetBytes)  ETV
attr interpolationmode  none
attr source  rcvdPk
attr title  "packets received, vector(packetBytes)"
vector 45  CAIN.pgw.udp  passedUpPk:vector(count)  ETV
attr interpolationmode  none
attr title  "packets passed up, vector(count)"
vector 43  CAIN.pgw.udp  sentPk:vector(packetBytes)  ETV
attr interpolationmode  none
attr source  sentPk
attr title  "packets sent, vector(packetBytes)"
vector 53  CAIN.pgw.ppp[0].queue  rcvdPk:vector(packetBytes)  ETV
attr interpolationmode  none
attr title  "received packets, vector(packetBytes)"
vector 55  CAIN.pgw.ppp[0].queue  queueingTime:vector  ETV
attr interpolationmode  none
attr title  "queueing time, vector"
vector 62  CAIN.pgw.ppp[0].ppp  rcvdPkFromHL:vector(packetBytes)  ETV
attr interpolationmode  none
attr source  packetReceivedFromUpper
attr title  "packets received from higher layer, vector(packetBytes)"
vector 58  CAIN.pgw.ppp[0].ppp  txPk:vector(packetBytes)  ETV
attr interpolationmode  none
attr source  packetSentToLower
attr title  "packets transmitted, vector(packetBytes)"
vector 123  CAIN.eNodeB.pppIf.ppp  rxPkOk:vector(packetBytes)  ETV
attr interpolationmode  none
attr source  rxPkOk
attr title  "packets received OK, vector(packetBytes)"
vector 127  CAIN.eNodeB.pppIf.ppp  passedUpPk:vector(packetBytes)  ETV
attr interpolationmode  none
attr source  packetSentToUpper
attr title  "packets passed to higher layer, vector(packetBytes)"
vector 87  CAIN.eNodeB.udp  rcvdPk:vector(packetBytes)  ETV
attr interpolationmode  none
attr source  rcvdPk
attr title  "packets received, vector(packetBytes)"
vector 88  CAIN.eNodeB.udp  passedUpPk:vector(count)  ETV
attr interpolationmode  none
attr title  "packets passed up, vector(count)"
vector 723  CAIN.ueD2DTx[16].nic.mac  sentPacketToUpperLayer:vector(packetBytes)  ETV
attr interpolationmode  none
attr source  sentPacketToUpperLayer
vector 818  CAIN.ueD2DTx[19].nic.mac  receivedPacketFromLowerLayer:vector(packetBytes)  ETV
attr interpolationmode  none
attr source  receivedPacketFromLowerLayer
1268	175	0.0000001228	0
1379	260	0.0000006304	65535
1380	260	0.0000006304	8940
1381	260	0.0000006304	0.3725
1377	260	0.0000006304	3
1384	260	0.0000006304	1
1396	188	0.0000003096	0
1352	260	0.0000006304	65535
1353	260	0.0000006304	8940
1354	260	0.0000006304	0.3725
1350	260	0.0000006304	3
1357	260	0.0000006304	1
1369	188	0.0000003096	0
1070	260	0.0000006304	65535
1071	260	0.0000006304	8940
1072	260	0.0000006304	0.3725
1068	260	0.0000006304	3
1068	327	0.0000008564	1
1069	327	0.0000008564	2.26e-07
1074	4175	0.0570000972	2000
1074	4194	0.0570003844	2001
1074	4194	0.0570003844	2002
1074	4194	0.0570003844	2003
1074	4194	0.0570003844	2004
1074	4194	0.0570003844	2005
1074	4194	0.0570003844	2006
1074	4194	0.0570003844	2007
1074	18620	0.2570015836	2008
1074	18620	0.2570015836	2009
1074	18620	0.2570015836	2010
1074	18620	0.2570015836	2011
1074	18620	0.2570015836	2012
1074	18620	0.2570015836	2013
1074	18620	0.2570015836	2014
1074	18620	0.2570015836	2015
1074	18620	0.2570015836	2016
1074	18620	0.2570015836	2017
1074	18620	0.2570015836	2018
1074	18620	0.2570015836	2019
1074	18620	0.2570015836	2020
1074	18620	0.2570015836	2021
1074	18620	0.2570015836	2022
1074	18620	0.2570015836	2023
1074	18620	0.2570015836	2024
1074	18620	0.2570015836	2025
1074	18620	0.2570015836	2026
1074	18620	0.2570015836	2027
1074	18620	0.2570015836	2028
1074	18620	0.2570015836	2029
1074	18620	0.2570015836	2030
1074	18620	0.2570015836	2031
1074	18620	0.2570015836	2032
1074	18620	0.2570015836	2033
1074	18620	0.2570015836	2034
1074	18620	0.2570015836	2035
1074	18620	0.2570015836	2036
1074	18620	0.2570015836	2037
1074	18620	0.2570015836	2038
1074	18620	0.2570015836	2039
1074	18620	0.2570015836	2040
1074	18620	0.2570015836	2041
1074	18620	0.2570015836	2042
1074	18620	0.2570015836	2043
1074	18620	0.2570015836	2044
1074	18620	0.2570015836	2045
1074	18620	0.2570015836	2046
1074	18620	0.2570015836	2047
1074	18620	0.2570015836	2048
1074	18620	0.2570015836	2049
1074	18620	0.2570015836	2050
1074	18620	0.2570015836	2051
1074	18620	0.2570015836	2052
1074	18620	0.2570015836	2053
1074	18620	0.2570015836	2054
1074	18620	0.2570015836	2055
1074	18620	0.2570015836	2056
1074	18620	0.2570015836	2057
1074	18620	0.2570015836	2058
1074	18620	0.2570015836	2059
1074	18620	0.2570015836	2060
1074	18620	0.2570015836	2061
1074	18620	0.2570015836	2062
1074	18620	0.2570015836	2063
1074	18620	0.2570015836	2064
1074	18620	0.2570015836	2065
1074	18620	0.2570015836	2066
1074	18620	0.2570015836	2067
1074	18620	0.2570015836	2068
1074	18620	0.2570015836	2069
1074	18620	0.2570015836	2070
1074	18620	0.2570015836	2071
1077	232	0.000000552	1
1077	246	0.000000596	2
1076	232	0.000000552	1
1076	246	0.000000596	2
1078	327	0.0000008564	1
1078	333	0.0000009004	2
1087	156	0	0
1046	4175	0.0570000972	65533
1046	18606	0.2570003844	65535
1046	32660	0.4570015836	65535
1050	4175	0.0570000972	2
1050	4178	0.0570000972	2
1050	4202	0.0570003844	14
1050	4203	0.0570003844	0
1050	4204	0.0570003844	0
1050	4205	0.0570003844	0
1050	4206	0.0570003844	0
1050	4207	0.0570003844	0
1050	4208	0.0570003844	0
1050	18606	0.2570003844	0
1050	18685	0.2570015836	128
1050	18686	0.2570015836	0
1050	18687	0.2570015836	0
1050	18688	0.2570015836	0
1050	18689	0.2570015836	0
1050	18690	0.2570015836	0
1050	18691	0.2570015836	0
1050	18692	0.2570015836	0
1050	18693	0.2570015836	0
1050	18694	0.2570015836	0
1050	18695	0.2570015836	0
1050	18696	0.2570015836	0
1050	18697	0.2570015836	0
1050	18698	0.2570015836	0
1050	18699	0.2570015836	0
1050	18700	0.2570015836	0
1050	18701	0.2570015836	0
1050	18702	0.2570015836	0
1050	18703	0.2570015836	0
1050	18704	0.2570015836	0
1050	18705	0.2570015836	0
1050	18706	0.2570015836	0
1050	18707	0.2570015836	0
1050	18708	0.2570015836	0
1050	18709	0.2570015836	0
1050	18710	0.2570015836	0
1050	18711	0.2570015836	0
1050	18712	0.2570015836	0
1050	18713	0.2570015836	0
1050	18714	0.2570015836	0
1050	18715	0.2570015836	0
1050	18716	0.2570015836	0
1050	18717	0.2570015836	0
1050	18718	0.2570015836	0
1050	18719	0.2570015836	0
1050	18720	0.2570015836	0
1050	18721	0.2570015836	0
1050	18722	0.2570015836	0
1050	18723	0.2570015836	0
1050	18724	0.2570015836	0
1050	18725	0.2570015836	0
1050	18726	0.2570015836	0
1050	18727	0.2570015836	0
1050	18728	0.2570015836	0
1050	18729	0.2570015836	0
1050	18730	0.2570015836	0
1050	18731	0.2570015836	0
1050	18732	0.2570015836	0
1050	18733	0.2570015836	0
1050	18734	0.2570015836	0
1050	18735	0.2570015836	0
1050	18736	0.2570015836	0
1050	18737	0.2570015836	0
1050	18738	0.2570015836	0
1050	18739	0.2570015836	0
1050	18740	0.2570015836	0
1050	18741	0.2570015836	0
1050	18742	0.2570015836	0
1050	18743	0.2570015836	0
1050	18744	0.2570015836	0
1050	18745	0.2570015836	0
1050	18746	0.2570015836	0
1050	18747	0.2570015836	0
1050	18748	0.2570015836	0
1050	32660	0.4570015836	0
1055	4175	0.0570000972	0
1055	18606	0.2570003844	0
1055	32660	0.4570015836	0
1056	4175	0.0570000972	0
1056	18606	0.2570003844	0
1056	32660	0.4570015836	0
1057	4175	0.0570000972	0
1057	18606	0.2570003844	0
1057	32660	0.4570015836	0
1058	4175	0.0570000972	0
1058	18606	0.2570003844	0
1058	32660	0.4570015836	0
1059	4175	0.0570000972	0
1059	18606	0.2570003844	0
1059	32660	0.4570015836	0
1060	4175	0.0570000972	0
1060	18606	0.2570003844	0
1060	32660	0.4570015836	0
1061	4175	0.0570000972	0
1061	18606	0.2570003844	0
1061	32660	0.4570015836	0
1062	4175	0.0570000972	16
1062	18606	0.2570003844	16
1062	32660	0.4570015836	16
1064	188	0.0000003096	65535
1066	4178	0.0570000972	9.72e-08
1066	4202	0.0570003844	1.932e-07
1066	4202	0.0570003844	1.932e-07
1066	4202	0.0570003844	1.932e-07
1066	4202	0.0570003844	1.932e-07
1066	4202	0.0570003844	1.932e-07
1066	4202	0.0570003844	1.932e-07
1066	4202	0.0570003844	1.932e-07
1066	18685	0.2570015836	1.1052e-06
1066	18685	0.2570015836	1.1052e-06
1066	18685	0.2570015836	1.1052e-06
1066	18685	0.2570015836	1.1052e-06
1066	18685	0.2570015836	1.1052e-06
1066	18685	0.2570015836	1.1052e-06
1066	18685	0.2570015836	1.1052e-06
1066	18685	0.2570015836	1.1052e-06
1066	18685	0.2570015836	1.1052e-06
1066	18685	0.2570015836	1.1052e-06
1066	18685	0.2570015836	1.1052e-06
1066	18685	0.2570015836	1.1052e-06
1066	18685	0.2570015836	1.1052e-06
1066	18685	0.2570015836	1.1052e-06
1066	18685	0.2570015836	1.1052e-06
1066	18685	0.2570015836	1.1052e-06
1066	18685	0.2570015836	1.1052e-06
1066	18685	0.2570015836	1.1052e-06
1066	18685	0.2570015836	1.1052e-06
1066	18685	0.2570015836	1.1052e-06
1066	18685	0.2570015836	1.1052e-06
1066	18685	0.2570015836	1.1052e-06
1066	18685	0.2570015836	1.1052e-06
1066	18685	0.2570015836	1.1052e-06
1066	18685	0.2570015836	1.1052e-06
1066	18685	0.2570015836	1.1052e-06
1066	18685	0.2570015836	1.1052e-06
1066	18685	0.2570015836	1.1052e-06
1066	18685	0.2570015836	1.1052e-06
1066	18685	0.2570015836	1.1052e-06
1066	18685	0.2570015836	1.1052e-06
1066	18685	0.2570015836	1.1052e-06
1066	18685	0.2570015836	1.1052e-06
1066	18685	0.2570015836	1.1052e-06
1066	18685	0.2570015836	1.1052e-06
1066	18685	0.2570015836	1.1052e-06
1066	18685	0.2570015836	1.1052e-06
1066	18685	0.2570015836	1.1052e-06
1066	18685	0.2570015836	1.1052e-06
1066	18685	0.2570015836	1.1052e-06
1066	18685	0.2570015836	1.1052e-06
1066	18685	0.2570015836	1.1052e-06
1066	18685	0.2570015836	1.1052e-06
1066	18685	0.2570015836	1.1052e-06
1066	18685	0.2570015836	1.1052e-06
1066	18685	0.2570015836	1.1052e-06
1066	18685	0.2570015836	1.1052e-06
1066	18685	0.2570015836	1.1052e-06
1066	18685	0.2570015836	1.1052e-06
1066	18685	0.2570015836	1.1052e-06
1066	18685	0.2570015836	1.1052e-06
1066	18685	0.2570015836	1.1052e-06
1066	18685	0.2570015836	1.1052e-06
1066	18685	0.2570015836	1.1052e-06
1066	18685	0.2570015836	1.1052e-06
1066	18685	0.2570015836	1.1052e-06
1066	18685	0.2570015836	1.1052e-06
1066	18685	0.2570015836	1.1052e-06
1066	18685	0.2570015836	1.1052e-06
1066	18685	0.2570015836	1.1052e-06
1066	18685	0.2570015836	1.1052e-06
1066	18685	0.2570015836	1.1052e-06
1066	18685	0.2570015836	1.1052e-06
1066	18685	0.2570015836	1.1052e-06
1067	156	0	0
1298	203	0.000000458	65535
1299	203	0.000000458	8940
1300	203	0.000000458	0.3725
1296	203	0.000000458	3
1303	203	0.000000458	1
1311	729	0.0070001912	0
1311	14902	0.2070004784	0
1311	29233	0.4070016776	0
1312	729	0.0070001912	0
1312	14902	0.2070004784	0
1312	29233	0.4070016776	0
1313	729	0.0070001912	0
1313	14902	0.2070004784	0
1313	29233	0.4070016776	0
1315	175	0.0000001228	0
1271	203	0.000000458	65535
1272	203	0.000000458	8940
1273	203	0.000000458	0.3725
1269	203	0.000000458	3
1276	203	0.000000458	1
1284	729	0.0070001912	0
1284	14902	0.2070004784	0
1284	29233	0.4070016776	0
1285	729	0.0070001912	0
1285	14902	0.2070004784	0
1285	29233	0.4070016776	0
1286	729	0.0070001912	0
1286	14902	0.2070004784	0
1286	29233	0.4070016776	0
1288	175	0.0000001228	0
1325	203	0.000000458	65535
1325	84053	1.2070004784	65535
1326	203	0.000000458	8940
1326	84053	1.2070004784	8940
1327	203	0.000000458	0.3725
1327	84053	1.2070004784	23.84
1323	203	0.000000458	3
1323	280	0.0000006744	1
1323	729	0.0070001912	1
1323	14902	0.2070004784	1
1323	29233	0.4070016776	1
1324	280	0.0000006744	2.164e-07
1324	729	0.0070001912	1.912e-07
1324	14902	0.2070004784	0.2000002872
1324	29233	0.4070016776	0.2000011992
1328	674	0.007	2000
1328	729	0.0070001912	2001
1328	729	0.0070001912	2002
1328	729	0.0070001912	2003
1328	729	0.0070001912	2004
1328	729	0.0070001912	2005
1328	729	0.0070001912	2006
1328	729	0.0070001912	2007
1328	14902	0.2070004784	2008
1328	14902	0.2070004784	2009
1328	14902	0.2070004784	2010
1328	14902	0.2070004784	2011
1328	14902	0.2070004784	2012
1328	14902	0.2070004784	2013
1328	14902	0.2070004784	2014
1328	14902	0.2070004784	2015
1328	14902	0.2070004784	2016
1328	14902	0.2070004784	2017
1328	14902	0.2070004784	2018
1328	14902	0.2070004784	2019
1328	14902	0.2070004784	2020
1328	14902	0.2070004784	2021
1328	14902	0.2070004784	2022
1328	14902	0.2070004784	2023
1328	14902	0.2070004784	2024
1328	14902	0.2070004784	2025
1328	14902	0.2070004784	2026
1328	14902	0.2070004784	2027
1328	14902	0.2070004784	2028
1328	14902	0.2070004784	2029
1328	14902	0.2070004784	2030
1328	14902	0.2070004784	2031
1328	14902	0.2070004784	2032
1328	14902	0.2070004784	2033
1328	14902	0.2070004784	2034
1328	14902	0.2070004784	2035
1328	14902	0.2070004784	2036
1328	14902	0.2070004784	2037
1328	14902	0.2070004784	2038
1328	14902	0.2070004784	2039
1328	14902	0.2070004784	2040
1328	14902	0.2070004784	2041
1328	14902	0.2070004784	2042
1328	14902	0.2070004784	2043
1328	14902	0.2070004784	2044
1328	14902	0.2070004784	2045
1328	14902	0.2070004784	2046
1328	14902	0.2070004784	2047
1328	14902	0.2070004784	2048
1328	14902	0.2070004784	2049
1328	14902	0.2070004784	2050
1328	14902	0.2070004784	2051
1328	14902	0.2070004784	2052
1328	14902	0.2070004784	2053
1328	14902	0.2070004784	2054
1328	14902	0.2070004784	2055
1328	14902	0.2070004784	2056
1328	14902	0.2070004784	2057
1328	14902	0.2070004784	2058
1328	14902	0.2070004784	2059
1328	14902	0.2070004784	2060
1328	14902	0.2070004784	2061
1328	14902	0.2070004784	2062
1328	14902	0.2070004784	2063
1328	14902	0.2070004784	2064
1328	14902	0.2070004784	2065
1328	14902	0.2070004784	2066
1328	14902	0.2070004784	2067
1328	14902	0.2070004784	2068
1328	14902	0.2070004784	2069
1328	14902	0.2070004784	2070
1328	14902	0.2070004784	2071
1332	298	0.0000007624	1
1332	312	0.0000008064	2
1331	298	0.0000007624	1
1331	312	0.0000008064	2
1333	280	0.0000006744	1
1333	290	0.0000007184	2
1334	674	0.007	2
1334	729	0.0070001912	0
1334	729	0.0070001912	2
1334	729	0.0070001912	4
1334	729	0.0070001912	6
1334	729	0.0070001912	8
1334	729	0.0070001912	10
1334	729	0.0070001912	12
1334	729	0.0070001912	14
1334	14902	0.2070004784	12
1334	14902	0.2070004784	10
1334	14902	0.2070004784	8
1334	14902	0.2070004784	6
1334	14902	0.2070004784	4
1334	14902	0.2070004784	2
1334	14902	0.2070004784	0
1334	14902	0.2070004784	2
1334	14902	0.2070004784	4
1334	14902	0.2070004784	6
1334	14902	0.2070004784	8
1334	14902	0.2070004784	10
1334	14902	0.2070004784	12
1334	14902	0.2070004784	14
1334	14902	0.2070004784	16
1334	14902	0.2070004784	18
1334	14902	0.2070004784	20
1334	14902	0.2070004784	22
1334	14902	0.2070004784	24
1334	14902	0.2070004784	26
1334	14902	0.2070004784	28
1334	14902	0.2070004784	30
1334	14902	0.2070004784	32
1334	14902	0.2070004784	34
1334	14902	0.2070004784	36
1334	14902	0.2070004784	38
1334	14902	0.2070004784	40
1334	14902	0.2070004784	42
1334	14902	0.2070004784	44
1334	14902	0.2070004784	46
1334	14902	0.2070004784	48
1334	14902	0.2070004784	50
1334	14902	0.2070004784	52
1334	14902	0.2070004784	54
1334	14902	0.2070004784	56
1334	14902	0.2070004784	58
1334	14902	0.2070004784	60
1334	14902	0.2070004784	62
1334	14902	0.2070004784	64
1334	14902	0.2070004784	66
1334	14902	0.2070004784	68
1334	14902	0.2070004784	70
1334	14902	0.2070004784	72
1334	14902	0.2070004784	74
1334	14902	0.2070004784	76
1334	14902	0.2070004784	78
1334	14902	0.2070004784	80
1334	14902	0.2070004784	82
1334	14902	0.2070004784	84
1334	14902	0.2070004784	86
1334	14902	0.2070004784	88
1334	14902	0.2070004784	90
1334	14902	0.2070004784	92
1334	14902	0.2070004784	94
1334	14902	0.2070004784	96
1334	14902	0.2070004784	98
1334	14902	0.2070004784	100
1334	14902	0.2070004784	102
1334	14902	0.2070004784	104
1334	14902	0.2070004784	106
1334	14902	0.2070004784	108
1334	14902	0.2070004784	110
1334	14902	0.2070004784	112
1334	14902	0.2070004784	114
1334	14902	0.2070004784	116
1334	14902	0.2070004784	118
1334	14902	0.2070004784	120
1334	14902	0.2070004784	122
1334	14902	0.2070004784	124
1334	14902	0.2070004784	126
1334	14902	0.2070004784	128
1334	29233	0.4070016776	126
1334	29233	0.4070016776	124
1334	29233	0.4070016776	122
1334	29233	0.4070016776	120
1334	29233	0.4070016776	118
1334	29233	0.4070016776	116
1334	29233	0.4070016776	114
1334	29233	0.4070016776	112
1334	29233	0.4070016776	110
1334	29233	0.4070016776	108
1334	29233	0.4070016776	106
1334	29233	0.4070016776	104
1334	29233	0.4070016776	102
1334	29233	0.4070016776	100
1334	29233	0.4070016776	98
1334	29233	0.4070016776	96
1334	29233	0.4070016776	94
1334	29233	0.4070016776	92
1334	29233	0.4070016776	90
1334	29233	0.4070016776	88
1334	29233	0.4070016776	86
1334	29233	0.4070016776	84
1334	29233	0.4070016776	82
1334	29233	0.4070016776	80
1334	29233	0.4070016776	78
1334	29233	0.4070016776	76
1334	29233	0.4070016776	74
1334	29233	0.4070016776	72
1334	29233	0.4070016776	70
1334	29233	0.4070016776	68
1334	29233	0.4070016776	66
1334	29233	0.4070016776	64
1334	29233	0.4070016776	62
1334	29233	0.4070016776	60
1334	29233	0.4070016776	58
1334	29233	0.4070016776	56
1334	29233	0.4070016776	54
1334	29233	0.4070016776	52
1334	29233	0.4070016776	50
1334	29233	0.4070016776	48
1334	29233	0.4070016776	46
1334	29233	0.4070016776	44
1334	29233	0.4070016776	42
1334	29233	0.4070016776	40
1334	29233	0.4070016776	38
1334	29233	0.4070016776	36
1334	29233	0.4070016776	34
1334	29233	0.4070016776	32
1334	29233	0.4070016776	30
1334	29233	0.4070016776	28
1334	29233	0.4070016776	26
1334	29233	0.4070016776	24
1334	29233	0.4070016776	22
1334	29233	0.4070016776	20
1334	29233	0.4070016776	18
1334	29233	0.4070016776	16
1334	29233	0.4070016776	14
1334	29233	0.4070016776	12
1334	29233	0.4070016776	10
1334	29233	0.4070016776	8
1334	29233	0.4070016776	6
1334	29233	0.4070016776	4
1334	29233	0.4070016776	2
1334	29233	0.4070016776	0
1335	674	0.007	2
1335	729	0.0070001912	0
1335	729	0.0070001912	2
1335	729	0.0070001912	4
1335	729	0.0070001912	6
1335	729	0.0070001912	8
1335	729	0.0070001912	10
1335	729	0.0070001912	12
1335	729	0.0070001912	14
1335	14902	0.2070004784	12
1335	14902	0.2070004784	10
1335	14902	0.2070004784	8
1335	14902	0.2070004784	6
1335	14902	0.2070004784	4
1335	14902	0.2070004784	2
1335	14902	0.2070004784	0
1335	14902	0.2070004784	2
1335	14902	0.2070004784	4
1335	14902	0.2070004784	6
1335	14902	0.2070004784	8
1335	14902	0.2070004784	10
1335	14902	0.2070004784	12
1335	14902	0.2070004784	14
1335	14902	0.2070004784	16
1335	14902	0.2070004784	18
1335	14902	0.2070004784	20
1335	14902	0.2070004784	22
1335	14902	0.2070004784	24
1335	14902	0.2070004784	26
1335	14902	0.2070004784	28
1335	14902	0.2070004784	30
1335	14902	0.2070004784	32
1335	14902	0.2070004784	34
1335	14902	0.2070004784	36
1335	14902	0.2070004784	38
1335	14902	0.2070004784	40
1335	14902	0.2070004784	42
1335	14902	0.2070004784	44
1335	14902	0.2070004784	46
1335	14902	0.2070004784	48
1335	14902	0.2070004784	50
1335	14902	0.2070004784	52
1335	14902	0.2070004784	54
1335	14902	0.2070004784	56
1335	14902	0.2070004784	58
1335	14902	0.2070004784	60
1335	14902	0.2070004784	62
1335	14902	0.2070004784	64
1335	14902	0.2070004784	66
1335	14902	0.2070004784	68
1335	14902	0.2070004784	70
1335	14902	0.2070004784	72
1335	14902	0.2070004784	74
1335	14902	0.2070004784	76
1335	14902	0.2070004784	78
1335	14902	0.2070004784	80
1335	14902	0.2070004784	82
1335	14902	0.2070004784	84
1335	14902	0.2070004784	86
1335	14902	0.2070004784	88
1335	14902	0.2070004784	90
1335	14902	0.2070004784	92
1335	14902	0.2070004784	94
1335	14902	0.2070004784	96
1335	14902	0.2070004784	98
1335	14902	0.2070004784	100
1335	14902	0.2070004784	102
1335	14902	0.2070004784	104
1335	14902	0.2070004784	106
1335	14902	0.2070004784	108
1335	14902	0.2070004784	110
1335	14902	0.2070004784	112
1335	14902	0.2070004784	114
1335	14902	0.2070004784	116
1335	14902	0.2070004784	118
1335	14902	0.2070004784	120
1335	14902	0.2070004784	122
1335	14902	0.2070004784	124
1335	14902	0.2070004784	126
1335	14902	0.2070004784	128
1335	29233	0.4070016776	126
[...]
954	47774	0.678	127
954	48110	0.683	128
954	48471	0.688	129
954	48832	0.693	130
954	49126	0.698	131
954	49507	0.703	132
954	49843	0.708	133
954	50179	0.713	134
954	50540	0.718	135
954	50901	0.723	136
954	51195	0.728	137
954	51556	0.733	138
954	51892	0.738	139
954	52228	0.743	140
954	52589	0.748	141
954	52950	0.753	142
954	53244	0.758	143
954	53605	0.763	144
954	53941	0.768	145
954	54277	0.773	146
954	54638	0.778	147
954	54999	0.783	148
954	55293	0.788	149
954	55654	0.793	150
954	55990	0.798	151
954	56346	0.803	152
954	56707	0.808	153
954	57068	0.813	154
954	57362	0.818	155
954	57723	0.823	156
954	58059	0.828	157
954	58395	0.833	158
954	58756	0.838	159
954	59117	0.843	160
954	59411	0.848	161
954	59772	0.853	162
954	60108	0.858	163
954	60444	0.863	164
954	60805	0.868	165
954	61166	0.873	166
954	61460	0.878	167
954	61821	0.883	168
954	62157	0.888	169
954	62493	0.893	170
954	62854	0.898	171
954	63235	0.903	172
954	63529	0.908	173
954	63890	0.913	174
954	64226	0.918	175
954	64562	0.923	176
954	64923	0.928	177
954	65284	0.933	178
954	65578	0.938	179
954	65939	0.943	180
954	66275	0.948	181
954	66611	0.953	182
954	66972	0.958	183
954	67333	0.963	184
954	67627	0.968	185
954	67988	0.973	186
954	68324	0.978	187
954	68660	0.983	188
954	69021	0.988	189
954	69382	0.993	190
954	69677	0.998	191
954	70057	1.003	192
954	70393	1.008	193
954	70729	1.013	194
954	71090	1.018	195
954	71451	1.023	196
954	71745	1.028	197
954	72106	1.033	198
954	72442	1.038	199
954	72778	1.043	200
954	73139	1.048	201
954	73500	1.053	202
954	73794	1.058	203
954	74155	1.063	204
954	74491	1.068	205
954	74827	1.073	206
954	75188	1.078	207
954	75549	1.083	208
954	75843	1.088	209
954	76204	1.093	210
954	76541	1.098	211
954	76896	1.103	212
954	77257	1.108	213
954	77618	1.113	214
954	77912	1.118	215
954	78273	1.123	216
954	78609	1.128	217
954	78945	1.133	218
954	79306	1.138	219
954	79667	1.143	220
954	79961	1.148	221
954	80322	1.153	222
954	80658	1.158	223
954	80994	1.163	224
954	81355	1.168	225
954	81716	1.173	226
954	82010	1.178	227
954	82371	1.183	228
954	82707	1.188	229
954	83043	1.193	230
954	83405	1.198	231
954	83785	1.203	232
954	84080	1.208	233
954	84441	1.213	234
954	84777	1.218	235
954	85113	1.223	236
954	85474	1.228	237
954	85835	1.233	238
954	86129	1.238	239
954	86490	1.243	240
954	86826	1.248	241
954	87162	1.253	242
954	87524	1.258	243
954	87885	1.263	244
954	88179	1.268	245
954	88540	1.273	246
954	88876	1.278	247
954	89212	1.283	248
954	89573	1.288	249
954	89934	1.293	250
954	90229	1.298	251
954	90609	1.303	252
954	90945	1.308	253
954	91281	1.313	254
954	91642	1.318	255
954	92003	1.323	256
954	92297	1.328	257
954	92658	1.333	258
954	92994	1.338	259
954	93330	1.343	260
954	93691	1.348	261
954	94052	1.353	262
954	94346	1.358	263
954	94707	1.363	264
954	95043	1.368	265
954	95379	1.373	266
954	95740	1.378	267
954	96101	1.383	268
954	96395	1.388	269
954	96756	1.393	270
954	97093	1.398	271
954	97448	1.403	272
954	97809	1.408	273
954	98170	1.413	274
954	98464	1.418	275
954	98825	1.423	276
954	99161	1.428	277
954	99497	1.433	278
954	99858	1.438	279
954	100219	1.443	280
954	100513	1.448	281
954	100874	1.453	282
954	101210	1.458	283
954	101546	1.463	284
954	101907	1.468	285
954	102268	1.473	286
954	102562	1.478	287
954	102923	1.483	288
954	103259	1.488	289
954	103595	1.493	290
954	103957	1.498	291
954	104337	1.503	292
954	104631	1.508	293
954	104992	1.513	294
954	105328	1.518	295
954	105664	1.523	296
954	106025	1.528	297
954	106386	1.533	298
954	106680	1.538	299
954	107041	1.543	300
954	107377	1.548	301
954	107713	1.553	302
954	108074	1.558	303
954	108435	1.563	304
954	108729	1.568	305
954	109090	1.573	306
954	109426	1.578	307
954	109762	1.583	308
954	110123	1.588	309
954	110484	1.593	310
954	110779	1.598	311
954	111159	1.603	312
954	111495	1.608	313
954	111831	1.613	314
954	112192	1.618	315
954	112553	1.623	316
954	112847	1.628	317
954	113208	1.633	318
954	113544	1.638	319
954	113880	1.643	320
954	114241	1.648	321
954	114602	1.653	322
954	114896	1.658	323
954	115257	1.663	324
954	115593	1.668	325
954	115929	1.673	326
954	116290	1.678	327
954	116651	1.683	328
954	116945	1.688	329
954	117306	1.693	330
954	117643	1.698	331
954	117998	1.703	332
954	118359	1.708	333
954	118720	1.713	334
954	119014	1.718	335
954	119375	1.723	336
954	119711	1.728	337
954	120047	1.733	338
954	120408	1.738	339
954	120769	1.743	340
954	121063	1.748	341
954	121424	1.753	342
954	121760	1.758	343
954	122096	1.763	344
954	122457	1.768	345
954	122818	1.773	346
954	123112	1.778	347
954	123473	1.783	348
954	123809	1.788	349
954	124145	1.793	350
954	124507	1.798	351
954	124887	1.803	352
954	125181	1.808	353
954	125542	1.813	354
954	125878	1.818	355
954	126214	1.823	356
954	126575	1.828	357
954	126936	1.833	358
954	127230	1.838	359
954	127591	1.843	360
954	127927	1.848	361
954	128263	1.853	362
954	128624	1.858	363
954	128985	1.863	364
954	129279	1.868	365
954	129640	1.873	366
954	129976	1.878	367
954	130312	1.883	368
954	130673	1.888	369
954	131034	1.893	370
954	131329	1.898	371
954	131709	1.903	372
954	132045	1.908	373
954	132381	1.913	374
954	132742	1.918	375
954	133103	1.923	376
954	133397	1.928	377
954	133758	1.933	378
954	134094	1.938	379
954	134430	1.943	380
954	134791	1.948	381
954	135152	1.953	382
954	135446	1.958	383
954	135807	1.963	384
954	136143	1.968	385
954	136479	1.973	386
954	136840	1.978	387
954	137201	1.983	388
954	137495	1.988	389
954	137856	1.993	390
954	138193	1.998	391
954	138548	2.003	392
954	138909	2.008	393
954	139270	2.013	394
954	139564	2.018	395
954	139925	2.023	396
954	140261	2.028	397
954	140597	2.033	398
954	140958	2.038	399
954	141319	2.043	400
954	141613	2.048	401
954	141974	2.053	402
954	142310	2.058	403
954	142646	2.063	404
954	143007	2.068	405
954	143368	2.073	406
954	143662	2.078	407
954	144023	2.083	408
954	144359	2.088	409
954	144695	2.093	410
954	145057	2.098	411
954	145437	2.103	412
954	145731	2.108	413
954	146092	2.113	414
954	146428	2.118	415
954	146764	2.123	416
954	147125	2.128	417
954	147486	2.133	418
954	147780	2.138	419
954	148141	2.143	420
954	148477	2.148	421
954	148813	2.153	422
954	149174	2.158	423
954	149535	2.163	424
954	149829	2.168	425
954	150190	2.173	426
954	150526	2.178	427
954	150862	2.183	428
954	151223	2.188	429
954	151584	2.193	430
954	151879	2.198	431
954	152259	2.203	432
954	152595	2.208	433
954	152931	2.213	434
954	153292	2.218	435
954	153653	2.223	436
954	153947	2.228	437
954	154308	2.233	438
954	154644	2.238	439
954	154980	2.243	440
954	155341	2.248	441
954	155702	2.253	442
954	155996	2.258	443
954	156357	2.263	444
954	156693	2.268	445
954	157029	2.273	446
954	157390	2.278	447
954	157751	2.283	448
954	158045	2.288	449
954	158406	2.293	450
954	158743	2.298	451
954	159098	2.303	452
954	159459	2.308	453
954	159820	2.313	454
954	160114	2.318	455
954	160475	2.323	456
954	160811	2.328	457
954	161147	2.333	458
954	161508	2.338	459
954	161869	2.343	460
954	162163	2.348	461
954	162524	2.353	462
954	162860	2.358	463
954	163196	2.363	464
954	163557	2.368	465
954	163918	2.373	466
954	164212	2.378	467
954	164573	2.383	468
954	164909	2.388	469
954	165245	2.393	470
954	165607	2.398	471
954	165987	2.403	472
954	166281	2.408	473
954	166642	2.413	474
954	166978	2.418	475
954	167314	2.423	476
954	167675	2.428	477
954	168036	2.433	478
954	168330	2.438	479
954	168691	2.443	480
954	169027	2.448	481
954	169363	2.453	482
954	169724	2.458	483
954	170085	2.463	484
954	170379	2.468	485
954	170740	2.473	486
954	171076	2.478	487
954	171412	2.483	488
954	171773	2.488	489
954	172134	2.493	490
954	172429	2.498	491
954	172809	2.503	492
954	173145	2.508	493
954	173481	2.513	494
954	173842	2.518	495
954	174203	2.523	496
954	174497	2.528	497
954	174858	2.533	498
954	175194	2.538	499
954	175530	2.543	500
954	175891	2.548	501
954	176252	2.553	502
954	176546	2.558	503
954	176907	2.563	504
954	177243	2.568	505
954	177579	2.573	506
954	177940	2.578	507
954	178301	2.583	508
954	178595	2.588	509
954	178956	2.593	510
954	179293	2.598	511
954	179648	2.603	512
954	180009	2.608	513
954	180370	2.613	514
954	180664	2.618	515
954	181025	2.623	516
954	181361	2.628	517
954	181697	2.633	518
954	182058	2.638	519
954	182419	2.643	520
954	182713	2.648	521
954	183074	2.653	522
954	183410	2.658	523
954	183746	2.663	524
954	184107	2.668	525
954	184468	2.673	526
954	184762	2.678	527
954	185123	2.683	528
954	185459	2.688	529
954	185795	2.693	530
954	186157	2.698	531
954	186537	2.703	532
954	186831	2.708	533
954	187195	2.713	534
954	187534	2.718	535
954	187873	2.723	536
954	188237	2.728	537
954	188601	2.733	538
954	188898	2.738	539
954	189262	2.743	540
954	189601	2.748	541
954	189940	2.753	542
954	190304	2.758	543
954	190668	2.763	544
954	190965	2.768	545
954	191329	2.773	546
954	191668	2.778	547
954	192007	2.783	548
954	192371	2.788	549
954	192735	2.793	550
954	193033	2.798	551
954	193416	2.803	552
954	193755	2.808	553
954	194094	2.813	554
954	194458	2.818	555
954	194822	2.823	556
954	195119	2.828	557
954	195483	2.833	558
954	195822	2.838	559
954	196161	2.843	560
954	196525	2.848	561
954	196889	2.853	562
954	197186	2.858	563
954	197550	2.863	564
954	197889	2.868	565
954	198228	2.873	566
954	198592	2.878	567
954	198956	2.883	568
954	199253	2.888	569
954	199617	2.893	570
954	199957	2.898	571
954	200315	2.903	572
954	200679	2.908	573
954	201043	2.913	574
954	201340	2.918	575
954	201704	2.923	576
954	202043	2.928	577
954	202382	2.933	578
954	202746	2.938	579
954	203110	2.943	580
954	203407	2.948	581
954	203771	2.953	582
954	204110	2.958	583
954	204449	2.963	584
954	204813	2.968	585
954	205177	2.973	586
954	205474	2.978	587
954	205838	2.983	588
954	206177	2.988	589
954	206516	2.993	590
954	206881	2.998	591
954	207264	3.003	592
954	207561	3.008	593
954	207925	3.013	594
954	208272	3.018	595
954	208635	3.023	596
954	209040	3.028	597
954	209468	3.033	598
954	209840	3.038	599
954	210321	3.043	600
954	210803	3.048	601
954	211262	3.053	602
954	211714	3.058	603
954	212133	3.063	604
954	212546	3.068	605
954	213009	3.073	606
954	213447	3.078	607
954	213905	3.083	608
954	214317	3.088	609
954	214727	3.093	610
954	215073	3.098	611
954	215531	3.103	612
954	215946	3.108	613
954	216375	3.113	614
954	216821	3.118	615
954	217248	3.123	616
954	217600	3.128	617
954	218019	3.133	618
954	218413	3.138	619
954	218807	3.143	620
954	219226	3.148	621
954	219645	3.153	622
954	219997	3.158	623
967	0	0	1
973	4234	0.057842512242	44
973	211675	3.057842512242	44
976	4234	0.057842512242	45
976	211675	3.057842512242	45
977	4237	0.057842512242	45
977	211678	3.057842512242	45
977	212012	3.062	47
978	2018	0.03	0
978	2205	0.032	0
978	2353	0.035	0
978	2532	0.037	0
978	2736	0.04	0
978	2883	0.042	0
978	3169	0.045	0
978	3293	0.047	0
978	3619	0.05	0
978	3686	0.051	0
978	3749	0.052	0
978	3792	0.053	0
978	3969	0.055	0
978	4085	0.056	0
978	4171	0.057	0
978	4402	0.06	0
978	5467	0.074	0
978	5795	0.079	0
978	7319	0.099	0
978	209206	3.03	0
978	209614	3.035	0
978	210065	3.04	0
978	210565	3.045	0
978	211075	3.05	0
978	211462	3.055	0
978	211876	3.06	0
978	211882	3.06	0
978	211949	3.061	0
978	212267	3.065	0
978	212281	3.065	0
978	212489	3.067	0
978	212493	3.067	0
978	212688	3.069	0
978	213178	3.074	0
978	213240	3.075	0
978	213598	3.079	0
978	213601	3.079	0
978	213739	3.08	0
978	214018	3.084	0
978	214021	3.084	0
978	214102	3.085	0
978	214407	3.089	0
978	214410	3.089	0
978	214487	3.09	0
978	214803	3.094	0
978	214806	3.094	0
978	214859	3.095	0
978	215224	3.099	0
978	215236	3.099	0
978	215239	3.099	0
978	215313	3.1	0
978	215679	3.104	0
978	215691	3.104	0
978	215694	3.104	0
978	215749	3.105	0
978	216061	3.109	0
978	216073	3.109	0
978	216076	3.109	0
978	216198	3.11	0
978	216489	3.114	0
978	216501	3.114	0
978	216504	3.114	0
978	216586	3.115	0
978	216900	3.119	0
978	216912	3.119	0
978	216915	3.119	0
978	216995	3.12	0
978	217324	3.124	0
978	217336	3.124	0
978	217339	3.124	0
978	217391	3.125	0
978	217743	3.129	0
978	217755	3.129	0
978	217758	3.129	0
978	217810	3.13	0
978	218162	3.134	0
978	218174	3.134	0
978	218177	3.134	0
978	218229	3.135	0
978	218514	3.139	0
978	218526	3.139	0
978	218529	3.139	0
978	218648	3.14	0
978	218908	3.144	0
978	218920	3.144	0
978	218923	3.144	0
978	219000	3.145	0
978	219302	3.149	0
978	219314	3.149	0
978	219317	3.149	0
978	219394	3.15	0
978	219721	3.154	0
978	219733	3.154	0
978	219736	3.154	0
978	219788	3.155	0
979	212008	3.062	0
980	2018	0.03	0
980	2353	0.035	0
980	2736	0.04	0
980	3169	0.045	0
980	3619	0.05	0
980	3686	0.051	0
980	3969	0.055	0
980	4085	0.056	0
980	4274	0.058	0
980	5467	0.074	0
980	5795	0.079	0
980	7319	0.099	0
980	209206	3.03	0
980	209614	3.035	0
980	210065	3.04	0
980	210565	3.045	0
980	211075	3.05	0
980	211462	3.055	0
980	211716	3.058	0
980	211876	3.06	0
980	212017	3.062	0
980	212267	3.065	0
980	212281	3.065	0
980	212688	3.069	0
980	213178	3.074	0
980	213240	3.075	0
980	213598	3.079	0
980	213601	3.079	0
980	213739	3.08	0
980	214018	3.084	0
980	214021	3.084	0
980	214102	3.085	0
980	214407	3.089	0
980	214410	3.089	0
980	214487	3.09	0
980	214803	3.094	0
980	214806	3.094	0
980	214859	3.095	0
980	215224	3.099	0
980	215236	3.099	0
980	215239	3.099	0
980	215313	3.1	0
980	215679	3.104	0
980	215691	3.104	0
980	215694	3.104	0
980	215749	3.105	0
980	216061	3.109	0
980	216073	3.109	0
980	216076	3.109	0
980	216198	3.11	0
980	216489	3.114	0
980	216501	3.114	0
980	216504	3.114	0
980	216586	3.115	0
980	216900	3.119	0
980	216912	3.119	0
980	216915	3.119	0
980	216995	3.12	0
980	217324	3.124	0
980	217336	3.124	0
980	217339	3.124	0
980	217391	3.125	0
980	217743	3.129	0
980	217755	3.129	0
980	217758	3.129	0
980	217810	3.13	0
980	218162	3.134	0
980	218174	3.134	0
980	218177	3.134	0
980	218229	3.135	0
980	218514	3.139	0
980	218526	3.139	0
980	218529	3.139	0
980	218648	3.14	0
980	218908	3.144	0
980	218920	3.144	0
980	218923	3.144	0
980	219000	3.145	0
980	219302	3.149	0
980	219314	3.149	0
980	219317	3.149	0
980	219394	3.15	0
980	219721	3.154	0
980	219733	3.154	0
980	219736	3.154	0
980	219788	3.155	0
985	2205	0.032	1
985	2532	0.037	2
985	2883	0.042	3
985	3293	0.047	4
985	3749	0.052	5
985	3792	0.053	6
985	4171	0.057	7
999	0	0	1
999	4103	0.057	2
999	4590	0.063	2
999	5027	0.069	2
999	5479	0.075	2
999	5932	0.081	2
999	6352	0.087	2
999	6791	0.093	2
999	7255	0.099	2
999	7749	0.105	2
1479	1210	0.016038050947	7504
1479	208164	3.016038050947	7504
1480	1210	0.016038050947	7504
1480	208164	3.016038050947	7504
1482	1210	0.016038050947	0
1482	208164	3.016038050947	0
1493	1210	0.016038050947	0
1493	208164	3.016038050947	0
1503	1503	0.021540784608	7504
1503	208550	3.021540784608	7504
1504	1503	0.021540784608	7504
1504	208550	3.021540784608	7504
1506	1503	0.021540784608	0
1506	208550	3.021540784608	0
1517	1503	0.021540784608	0
1517	208550	3.021540784608	0
1527	1815	0.02660460389	7504
1527	208946	3.02660460389	7504
1528	1815	0.02660460389	7504
1528	208946	3.02660460389	7504
1530	1815	0.02660460389	0
1530	208946	3.02660460389	0
1541	1815	0.02660460389	0
1541	208946	3.02660460389	0
1551	1857	0.027878343419	7504
1551	209006	3.027878343419	7504
1552	1857	0.027878343419	7504
1552	209006	3.027878343419	7504
1554	1857	0.027878343419	0
1554	209006	3.027878343419	0
1565	1857	0.027878343419	0
1565	209006	3.027878343419	0
1575	1901	0.028371024961	7504
1575	209064	3.028371024961	7504
1576	1901	0.028371024961	7504
1576	209064	3.028371024961	7504
1578	1901	0.028371024961	0
1578	209064	3.028371024961	0
1589	1901	0.028371024961	0
1589	209064	3.028371024961	0
1599	2207	0.032649362497	7504
1599	209429	3.032649362497	7504
1600	2207	0.032649362497	7504
1600	209429	3.032649362497	7504
1602	2207	0.032649362497	0
1602	209429	3.032649362497	0
1613	2207	0.032649362497	0
1613	209429	3.032649362497	0
1623	2302	0.034516076937	7504
1623	209553	3.034516076937	7504
1624	2302	0.034516076937	7504
1624	209553	3.034516076937	7504
1626	2302	0.034516076937	0
1626	209553	3.034516076937	0
1637	2302	0.034516076937	0
1637	209553	3.034516076937	0
1647	2430	0.036651693161	7504
1647	209713	3.036651693161	7504
1648	2430	0.036651693161	7504
1648	209713	3.036651693161	7504
1650	2430	0.036651693161	0
1650	209713	3.036651693161	0
1661	2430	0.036651693161	0
1661	209713	3.036651693161	0
1671	2745	0.040940929686	7504
1671	210079	3.040940929686	7504
1672	2745	0.040940929686	7504
1672	210079	3.040940929686	7504
1674	2745	0.040940929686	0
1674	210079	3.040940929686	0
1685	2745	0.040940929686	0
1685	210079	3.040940929686	0
1695	3299	0.047449069971	7504
1695	210730	3.047449069971	7504
1696	3299	0.047449069971	7504
1696	210730	3.047449069971	7504
1698	3299	0.047449069971	0
1698	210730	3.047449069971	0
1709	3299	0.047449069971	0
1709	210730	3.047449069971	0
1719	3391	0.04821039218	7504
1719	210833	3.04821039218	7504
1720	3391	0.04821039218	7504
1720	210833	3.04821039218	7504
1722	3391	0.04821039218	0
1722	210833	3.04821039218	0
1733	3391	0.04821039218	0
1733	210833	3.04821039218	0
1743	3981	0.055890854003	7504
1743	211475	3.055890854003	7504
1744	3981	0.055890854003	7504
1744	211475	3.055890854003	7504
1746	3981	0.055890854003	0
1746	211475	3.055890854003	0
1757	3981	0.055890854003	0
1757	211475	3.055890854003	0
1767	4231	0.057842512242	7504
1767	211672	3.057842512242	7504
1768	4231	0.057842512242	7504
1768	211672	3.057842512242	7504
1770	4231	0.057842512242	0
1770	211672	3.057842512242	0
1781	4231	0.057842512242	0
1781	211672	3.057842512242	0
1791	4239	0.057963030662	7504
1791	211679	3.057963030662	7504
1792	4239	0.057963030662	7504
1792	211679	3.057963030662	7504
1794	4239	0.057963030662	0
1794	211679	3.057963030662	0
1805	4239	0.057963030662	0
1805	211679	3.057963030662	0
1815	4658	0.063891002787	7504
1815	212159	3.063891002787	7504
1816	4658	0.063891002787	7504
1816	212159	3.063891002787	7504
1818	4658	0.063891002787	0
1818	212159	3.063891002787	0
1829	4658	0.063891002787	0
1829	212159	3.063891002787	0
1839	4711	0.064770889489	7504
1839	212224	3.064770889489	7504
1840	4711	0.064770889489	7504
1840	212224	3.064770889489	7504
1842	4711	0.064770889489	0
1842	212224	3.064770889489	0
1853	4711	0.064770889489	0
1853	212224	3.064770889489	0
1863	5196	0.071485376221	7504
1863	212850	3.071485376221	7504
1864	5196	0.071485376221	7504
1864	212850	3.071485376221	7504
1866	5196	0.071485376221	0
1866	212850	3.071485376221	0
1877	5196	0.071485376221	0
1877	212850	3.071485376221	0
1887	5600	0.076776781168	7504
1887	213317	3.076776781168	7504
1888	5600	0.076776781168	7504
1888	213317	3.076776781168	7504
1890	5600	0.076776781168	0
1890	213317	3.076776781168	0
1901	5600	0.076776781168	0
1901	213317	3.076776781168	0
1911	5801	0.079275280847	7504
1911	213612	3.079275280847	7504
1912	5801	0.079275280847	7504
1912	213612	3.079275280847	7504
1914	5801	0.079275280847	0
1914	213612	3.079275280847	0
1925	5801	0.079275280847	0
1925	213612	3.079275280847	0
1935	6039	0.082257983647	7504
1935	213864	3.082257983647	7504
1936	6039	0.082257983647	7504
1936	213864	3.082257983647	7504
1938	6039	0.082257983647	0
1938	213864	3.082257983647	0
1949	6039	0.082257983647	0
1949	213864	3.082257983647	0
1959	6461	0.088577514598	7504
1959	214345	3.088577514598	7504
1960	6461	0.088577514598	7504
1960	214345	3.088577514598	7504
1962	6461	0.088577514598	0
1962	214345	3.088577514598	0
1973	6461	0.088577514598	0
1973	214345	3.088577514598	0
1983	6469	0.088784986169	7504
1983	214352	3.088784986169	7504
1984	6469	0.088784986169	7504
1984	214352	3.088784986169	7504
1986	6469	0.088784986169	0
1986	214352	3.088784986169	0
1997	6469	0.088784986169	0
1997	214352	3.088784986169	0
2007	7034	0.096236986774	7504
2007	214953	3.096236986774	7504
2008	7034	0.096236986774	7504
2008	214953	3.096236986774	7504
2010	7034	0.096236986774	0
2010	214953	3.096236986774	0
2021	7034	0.096236986774	0
2021	214953	3.096236986774	0
2031	7042	0.09658703896	7504
2031	214960	3.09658703896	7504
2032	7042	0.09658703896	7504
2032	214960	3.09658703896	7504
2034	7042	0.09658703896	0
2034	214960	3.09658703896	0
2045	7042	0.09658703896	0
2045	214960	3.09658703896	0
2055	7241	0.09845927062	7504
2055	215174	3.09845927062	7504
2056	7241	0.09845927062	7504
2056	215174	3.09845927062	7504
2058	7241	0.09845927062	0
2058	215174	3.09845927062	0
2069	7241	0.09845927062	0
2069	215174	3.09845927062	0
