file 9736556 1589563384                                         
version 2
run CAIN-36-20200515-14:17:55-16662
attr configname CAIN
attr datetime 20200515-14:17:55
attr dist 200
attr experiment CAIN
attr inifile omnetpp.ini
attr iterationvars "$numUe=25, $pwr=-50, $dist=200, $mob=\"./movements/RWP-0.5.movements\""
attr iterationvars2 "$numUe=25, $pwr=-50, $dist=200, $mob=\"./movements/RWP-0.5.movements\", $repetition=1"
attr measurement "$numUe=25, $pwr=-50, $dist=200, $mob=\"./movements/RWP-0.5.movements\""
attr mob "\"./movements/RWP-0.5.movements\""
attr network lte.simulations.networks.CAIN
attr numUe 25
attr processid 16662
attr pwr -50
attr repetition 1
attr replication #1
attr resultdir results
attr runnumber 36
attr seedset 1
param **.**.amcMode "\"AUTO\""
param **.amcMode "\"D2D\""
param **.cainNetwork true
param **.channelControl.alpha 1.0
param **.channelControl.carrierFrequency 2100e+6Hz
param **.channelControl.pMax 10W
param **.d2dCqi 7
param **.deployer.numRbDl 50
param **.deployer.numRbUl 50
param **.distThresh ${dist=200}
param **.fbDelay 1
param **.feedbackComputation "xmldoc(\"config_channel.xml\")"
param **.mobility.constraintAreaMaxX 1000m
param **.mobility.constraintAreaMaxY 1000m
param **.mobility.constraintAreaMaxZ 0m
param **.mobility.constraintAreaMinX 0m
param **.mobility.constraintAreaMinY 0m
param **.mobility.constraintAreaMinZ 0m
param **.nic.phy.channelModel "xmldoc(\"config_channel.xml\")"
param **.numBands 50
param **.pwrThresh "${pwr= -50}"
param **.qtdThresh 3
param **.rbAllocationType "\"localized\""
param **.routingRecorder.enabled false
param **.tcpApp[*].tClose -1s
param **.ueD2DTx[*].mobility.changeAngleBy "normal(0deg, 30deg)"
param **.ueD2DTx[*].mobility.changeInterval "normal(5s, 0.1s)"
param **.ueD2DTx[*].mobility.nodeId -1
param **.ueD2DTx[*].mobility.speed "normal(2mps, 0.01mps)"
param **.ueD2DTx[*].mobility.traceFile "${mob=\"./movements/RWP-0.0.movements\",\"./movements/RWP-0.5.movements\",\"./movements/RPGM-0.0.movements\",\"./movements/RPGM-0.5.movements\",\"./movements/RWPRPGM-0.0.movements\",\"./movements/RWPRPGM-0.5.movements\"}"
param **.ueD2DTx[*].mobilityType "\"BonnMotionMobility\""
param **.usePreconfiguredTxParams false
param *.eNodeB*.numX2Apps 1
param *.eNodeB*.x2App[*].server.localPort "5000 + ancestorIndex(1)"
param *.eNodeB.d2dCapable false
param *.eNodeB.mobility.initFromDisplayString false
param *.eNodeB.mobility.initialX 300m
param *.eNodeB.mobility.initialY 300m
param *.eNodeB.nic.phy.enableD2DCqiReporting true
param *.eNodeB.txPower 19952.62315mw
param *.eNodeB.x2App[0].client.connectAddress "\"eNodeB1%x2ppp0\""
param *.eNodeB1.d2dCapable true
param *.eNodeB1.mobility.initFromDisplayString false
param *.eNodeB1.mobility.initialX 700m
param *.eNodeB1.mobility.initialY 300m
param *.eNodeB1.nic.phy.enableD2DCqiReporting true
param *.eNodeB1.txPower 19952.62315mw
param *.eNodeB1.x2App[0].client.connectAddress "\"eNodeB%x2ppp0\""
param *.extCell[*].bandAllocationType "\"FULL_ALLOC\""
param *.extCell[*].bandUtilization 0.5
param *.extCell[*].txDirection "\"ANISOTROPIC\""
param *.extCell[*].txPower 20
param *.extCell[0].position_x 100m
param *.extCell[0].position_y 600m
param *.extCell[0].txAngle 315
param *.extCell[1].position_x 600m
param *.extCell[1].position_y 600m
param *.extCell[1].txAngle 225
param *.numExtCells 2
param *.numUeCell 0
param *.numUeD2DRx 1
param *.numUeD2DTx 1
param *.ue*.macCellId 1
param *.ue*.masterId 1
param *.ue*.mobility.initFromDisplayString false
param *.ue*[0].macCellId 1
param *.ue*[0].masterId 1
param *.ue*[0].mobility.initFromDisplayString false
param *.ueD2D*.numTcpApps 1
param *.ueD2D*[*].d2dCapable true
param *.ueD2D*[0].d2dCapable false
param *.ueD2D*[0].numTcpApps 1
param *.ueD2DRx[0].mobility.initialX 310m
param *.ueD2DRx[0].mobility.initialY 350m
param *.ueD2DRx[0].tcpApp[*].localPort 1000
param *.ueD2DRx[0].tcpApp[*].typename "\"TCPSinkApp\""
param *.ueD2DTx*.nic.d2dPeerAddresses "\"ueD2DTx[1]\""
param *.ueD2DTx*.tcpApp[*].connectAddress "\"ueD2DTx[0]\""
param *.ueD2DTx*.tcpApp[*].localAddress "\"ueD2DTx\""
param *.ueD2DTx*.tcpApp[*].localPort 1000
param *.ueD2DTx*.tcpApp[*].sendBytes 1GiB
param *.ueD2DTx*.tcpApp[*].typename "\"TCPSessionApp\""
param *.ueD2DTx*.tcpApp[0].active true
param *.ueD2DTx*.tcpApp[0].connectPort 1000
param *.ueD2DTx*.tcpApp[0].tOpen uniform(0.010s,0.1s)
param *.ueD2DTx*.tcpApp[0].tSend uniform(0.15s,0.5s)
param *.ueD2DTx[0].mobility.initialX 290m
param *.ueD2DTx[0].mobility.initialY 350m
param *.ueD2DTx[0].tcpApp[*].localPort 1000
param *.ueD2DTx[0].tcpApp[*].sendBytes 1GiB
param *.ueD2DTx[0].tcpApp[*].typename "\"TCPSessionApp\""
param *.ueD2DTx[0].tcpApp[0].active true
param *.ueD2DTx[0].tcpApp[0].connectAddress "\"ueD2DRx[0]\""
param *.ueD2DTx[0].tcpApp[0].connectPort 1000
param *.ueD2DTx[0].tcpApp[0].localAddress "\"ueD2DTx[0]\""
param *.ueD2DTx[0].tcpApp[0].tOpen uniform(0.010s,0.1s)
param *.ueD2DTx[0].tcpApp[0].tSend uniform(0.15s,0.5s)

vector 8  CAIN.server.ppp[0].queue  queueLength:vector  ETV
attr interpolationmode  sample-hold
attr title  "queue length, vector"
vector 9  CAIN.server.ppp[0].ppp  txState:vector  ETV
attr interpolationmode  sample-hold
attr title  "tx state, vector"
vector 24  CAIN.router.ppp[0].queue  queueLength:vector  ETV
attr interpolationmode  sample-hold
attr title  "queue length, vector"
vector 25  CAIN.router.ppp[0].ppp  txState:vector  ETV
attr interpolationmode  sample-hold
attr title  "tx state, vector"
vector 35  CAIN.router.ppp[1].queue  queueLength:vector  ETV
attr interpolationmode  sample-hold
attr title  "queue length, vector"
vector 36  CAIN.router.ppp[1].ppp  txState:vector  ETV
attr interpolationmode  sample-hold
attr title  "tx state, vector"
vector 56  CAIN.pgw.ppp[0].queue  queueLength:vector  ETV
attr interpolationmode  sample-hold
attr title  "queue length, vector"
vector 57  CAIN.pgw.ppp[0].ppp  txState:vector  ETV
attr interpolationmode  sample-hold
attr title  "tx state, vector"
vector 67  CAIN.pgw.ppp[1].queue  queueLength:vector  ETV
attr interpolationmode  sample-hold
attr title  "queue length, vector"
vector 68  CAIN.pgw.ppp[1].ppp  txState:vector  ETV
attr interpolationmode  sample-hold
attr title  "tx state, vector"
vector 78  CAIN.pgw.pppInterface.queue  queueLength:vector  ETV
attr interpolationmode  sample-hold
attr title  "queue length, vector"
vector 79  CAIN.pgw.pppInterface.ppp  txState:vector  ETV
attr interpolationmode  sample-hold
attr title  "tx state, vector"
vector 120  CAIN.eNodeB.pppIf.queue  queueLength:vector  ETV
attr interpolationmode  sample-hold
attr title  "queue length, vector"
vector 121  CAIN.eNodeB.pppIf.ppp  txState:vector  ETV
attr interpolationmode  sample-hold
attr title  "tx state, vector"
vector 131  CAIN.eNodeB.x2ppp[0].queue  queueLength:vector  ETV
attr interpolationmode  sample-hold
attr title  "queue length, vector"
vector 132  CAIN.eNodeB.x2ppp[0].ppp  txState:vector  ETV
attr interpolationmode  sample-hold
attr title  "tx state, vector"
vector 178  CAIN.eNodeB1.pppIf.queue  queueLength:vector  ETV
attr interpolationmode  sample-hold
attr title  "queue length, vector"
vector 179  CAIN.eNodeB1.pppIf.ppp  txState:vector  ETV
attr interpolationmode  sample-hold
attr title  "tx state, vector"
vector 189  CAIN.eNodeB1.x2ppp[0].queue  queueLength:vector  ETV
attr interpolationmode  sample-hold
attr title  "queue length, vector"
vector 190  CAIN.eNodeB1.x2ppp[0].ppp  txState:vector  ETV
attr interpolationmode  sample-hold
attr title  "tx state, vector"
vector 231  CAIN.ueD2DTx[0].nic.phy  servingCell:vector  ETV
attr source  servingCell
attr title  "ID of the serving eNodeB for the UE, vector"
attr unit  ""
vector 263  CAIN.ueD2DTx[1].nic.phy  servingCell:vector  ETV
attr source  servingCell
attr title  "ID of the serving eNodeB for the UE, vector"
attr unit  ""
vector 295  CAIN.ueD2DTx[2].nic.phy  servingCell:vector  ETV
attr source  servingCell
attr title  "ID of the serving eNodeB for the UE, vector"
attr unit  ""
vector 327  CAIN.ueD2DTx[3].nic.phy  servingCell:vector  ETV
attr source  servingCell
attr title  "ID of the serving eNodeB for the UE, vector"
attr unit  ""
vector 359  CAIN.ueD2DTx[4].nic.phy  servingCell:vector  ETV
attr source  servingCell
attr title  "ID of the serving eNodeB for the UE, vector"
attr unit  ""
vector 391  CAIN.ueD2DTx[5].nic.phy  servingCell:vector  ETV
attr source  servingCell
attr title  "ID of the serving eNodeB for the UE, vector"
attr unit  ""
vector 423  CAIN.ueD2DTx[6].nic.phy  servingCell:vector  ETV
attr source  servingCell
attr title  "ID of the serving eNodeB for the UE, vector"
attr unit  ""
vector 455  CAIN.ueD2DTx[7].nic.phy  servingCell:vector  ETV
attr source  servingCell
attr title  "ID of the serving eNodeB for the UE, vector"
attr unit  ""
vector 487  CAIN.ueD2DTx[8].nic.phy  servingCell:vector  ETV
attr source  servingCell
attr title  "ID of the serving eNodeB for the UE, vector"
attr unit  ""
vector 519  CAIN.ueD2DTx[9].nic.phy  servingCell:vector  ETV
attr source  servingCell
attr title  "ID of the serving eNodeB for the UE, vector"
attr unit  ""
vector 551  CAIN.ueD2DTx[10].nic.phy  servingCell:vector  ETV
attr source  servingCell
attr title  "ID of the serving eNodeB for the UE, vector"
attr unit  ""
vector 583  CAIN.ueD2DTx[11].nic.phy  servingCell:vector  ETV
attr source  servingCell
attr title  "ID of the serving eNodeB for the UE, vector"
attr unit  ""
vector 615  CAIN.ueD2DTx[12].nic.phy  servingCell:vector  ETV
attr source  servingCell
attr title  "ID of the serving eNodeB for the UE, vector"
attr unit  ""
vector 647  CAIN.ueD2DTx[13].nic.phy  servingCell:vector  ETV
attr source  servingCell
attr title  "ID of the serving eNodeB for the UE, vector"
attr unit  ""
vector 679  CAIN.ueD2DTx[14].nic.phy  servingCell:vector  ETV
attr source  servingCell
attr title  "ID of the serving eNodeB for the UE, vector"
attr unit  ""
vector 711  CAIN.ueD2DTx[15].nic.phy  servingCell:vector  ETV
attr source  servingCell
attr title  "ID of the serving eNodeB for the UE, vector"
attr unit  ""
vector 743  CAIN.ueD2DTx[16].nic.phy  servingCell:vector  ETV
attr source  servingCell
attr title  "ID of the serving eNodeB for the UE, vector"
attr unit  ""
vector 775  CAIN.ueD2DTx[17].nic.phy  servingCell:vector  ETV
attr source  servingCell
attr title  "ID of the serving eNodeB for the UE, vector"
attr unit  ""
vector 807  CAIN.ueD2DTx[18].nic.phy  servingCell:vector  ETV
attr source  servingCell
attr title  "ID of the serving eNodeB for the UE, vector"
attr unit  ""
vector 839  CAIN.ueD2DTx[19].nic.phy  servingCell:vector  ETV
attr source  servingCell
attr title  "ID of the serving eNodeB for the UE, vector"
attr unit  ""
vector 871  CAIN.ueD2DTx[20].nic.phy  servingCell:vector  ETV
attr source  servingCell
attr title  "ID of the serving eNodeB for the UE, vector"
attr unit  ""
vector 903  CAIN.ueD2DTx[21].nic.phy  servingCell:vector  ETV
attr source  servingCell
attr title  "ID of the serving eNodeB for the UE, vector"
attr unit  ""
vector 935  CAIN.ueD2DTx[22].nic.phy  servingCell:vector  ETV
attr source  servingCell
attr title  "ID of the serving eNodeB for the UE, vector"
attr unit  ""
vector 967  CAIN.ueD2DTx[23].nic.phy  servingCell:vector  ETV
attr source  servingCell
attr title  "ID of the serving eNodeB for the UE, vector"
attr unit  ""
vector 999  CAIN.ueD2DTx[24].nic.phy  servingCell:vector  ETV
attr source  servingCell
attr title  "ID of the serving eNodeB for the UE, vector"
attr unit  ""
vector 1023  CAIN.eNodeB.sctp  "Throughput of Association 3"  ETV
vector 1045  CAIN.eNodeB1.sctp  "Throughput of Association 4"  ETV
vector 1067  CAIN.eNodeB.sctp  "Throughput of Association 1"  ETV
vector 1087  CAIN.eNodeB.sctp  "Fast Recovery State 1:10.0.5.2"  ETV
vector 1116  CAIN.eNodeB1.sctp  "Throughput of Association 2"  ETV
vector 1136  CAIN.eNodeB1.sctp  "Fast Recovery State 2:10.0.5.1"  ETV
vector 128  CAIN.eNodeB.x2ppp[0].queue  rcvdPk:vector(packetBytes)  ETV
attr interpolationmode  none
attr title  "received packets, vector(packetBytes)"
vector 130  CAIN.eNodeB.x2ppp[0].queue  queueingTime:vector  ETV
attr interpolationmode  none
attr title  "queueing time, vector"
vector 186  CAIN.eNodeB1.x2ppp[0].queue  rcvdPk:vector(packetBytes)  ETV
attr interpolationmode  none
attr title  "received packets, vector(packetBytes)"
vector 188  CAIN.eNodeB1.x2ppp[0].queue  queueingTime:vector  ETV
attr interpolationmode  none
attr title  "queueing time, vector"
vector 137  CAIN.eNodeB.x2ppp[0].ppp  rcvdPkFromHL:vector(packetBytes)  ETV
attr interpolationmode  none
attr source  packetReceivedFromUpper
attr title  "packets received from higher layer, vector(packetBytes)"
vector 133  CAIN.eNodeB.x2ppp[0].ppp  txPk:vector(packetBytes)  ETV
attr interpolationmode  none
attr source  packetSentToLower
attr title  "packets transmitted, vector(packetBytes)"
vector 195  CAIN.eNodeB1.x2ppp[0].ppp  rcvdPkFromHL:vector(packetBytes)  ETV
attr interpolationmode  none
attr source  packetReceivedFromUpper
attr title  "packets received from higher layer, vector(packetBytes)"
vector 191  CAIN.eNodeB1.x2ppp[0].ppp  txPk:vector(packetBytes)  ETV
attr interpolationmode  none
attr source  packetSentToLower
attr title  "packets transmitted, vector(packetBytes)"
vector 192  CAIN.eNodeB1.x2ppp[0].ppp  rxPkOk:vector(packetBytes)  ETV
attr interpolationmode  none
attr source  rxPkOk
attr title  "packets received OK, vector(packetBytes)"
vector 196  CAIN.eNodeB1.x2ppp[0].ppp  passedUpPk:vector(packetBytes)  ETV
attr interpolationmode  none
attr source  packetSentToUpper
attr title  "packets passed to higher layer, vector(packetBytes)"
vector 134  CAIN.eNodeB.x2ppp[0].ppp  rxPkOk:vector(packetBytes)  ETV
attr interpolationmode  none
attr source  rxPkOk
attr title  "packets received OK, vector(packetBytes)"
vector 138  CAIN.eNodeB.x2ppp[0].ppp  passedUpPk:vector(packetBytes)  ETV
attr interpolationmode  none
attr source  packetSentToUpper
attr title  "packets passed to higher layer, vector(packetBytes)"
vector 1165  CAIN.eNodeB1.sctp  "Throughput of Association 4"  ETV
vector 1042  CAIN.eNodeB1.sctp  "Peer Rwnd 4"  ETV
vector 1185  CAIN.eNodeB1.sctp  "Fast Recovery State 5:10.0.4.1"  ETV
vector 1212  CAIN.eNodeB1.sctp  "Fast Recovery State 5:10.0.2.2"  ETV
vector 1239  CAIN.eNodeB1.sctp  "Fast Recovery State 5:10.0.5.1"  ETV
vector 1268  CAIN.eNodeB.sctp  "Throughput of Association 3"  ETV
vector 1020  CAIN.eNodeB.sctp  "Peer Rwnd 3"  ETV
vector 1288  CAIN.eNodeB.sctp  "Fast Recovery State 6:10.0.4.2"  ETV
vector 1315  CAIN.eNodeB.sctp  "Fast Recovery State 6:10.0.3.2"  ETV
vector 1342  CAIN.eNodeB.sctp  "Fast Recovery State 6:10.0.5.2"  ETV
vector 1064  CAIN.eNodeB.sctp  "Peer Rwnd 1"  ETV
vector 1369  CAIN.eNodeB.sctp  "Fast Recovery State 1:10.0.4.2"  ETV
vector 1396  CAIN.eNodeB.sctp  "Fast Recovery State 1:10.0.3.2"  ETV
vector 1113  CAIN.eNodeB1.sctp  "Peer Rwnd 2"  ETV
vector 1423  CAIN.eNodeB1.sctp  "Fast Recovery State 2:10.0.4.1"  ETV
vector 1450  CAIN.eNodeB1.sctp  "Fast Recovery State 2:10.0.2.2"  ETV
vector 1195  CAIN.eNodeB1.sctp  "Slow Start Threshold 5:10.0.2.2"  ETV
vector 1196  CAIN.eNodeB1.sctp  "Congestion Window 5:10.0.2.2"  ETV
vector 1197  CAIN.eNodeB1.sctp  "Bandwidth 5:10.0.2.2"  ETV
vector 1200  CAIN.eNodeB1.sctp  "HB Sent 5:10.0.2.2"  ETV
vector 1193  CAIN.eNodeB1.sctp  "RTO 5:10.0.2.2"  ETV
vector 1168  CAIN.eNodeB1.sctp  "Slow Start Threshold 5:10.0.4.1"  ETV
vector 1169  CAIN.eNodeB1.sctp  "Congestion Window 5:10.0.4.1"  ETV
vector 1170  CAIN.eNodeB1.sctp  "Bandwidth 5:10.0.4.1"  ETV
vector 1173  CAIN.eNodeB1.sctp  "HB Sent 5:10.0.4.1"  ETV
vector 1166  CAIN.eNodeB1.sctp  "RTO 5:10.0.4.1"  ETV
vector 1222  CAIN.eNodeB1.sctp  "Slow Start Threshold 5:10.0.5.1"  ETV
vector 1223  CAIN.eNodeB1.sctp  "Congestion Window 5:10.0.5.1"  ETV
vector 1224  CAIN.eNodeB1.sctp  "Bandwidth 5:10.0.5.1"  ETV
vector 1220  CAIN.eNodeB1.sctp  "RTO 5:10.0.5.1"  ETV
vector 1298  CAIN.eNodeB.sctp  "Slow Start Threshold 6:10.0.3.2"  ETV
vector 1299  CAIN.eNodeB.sctp  "Congestion Window 6:10.0.3.2"  ETV
vector 1300  CAIN.eNodeB.sctp  "Bandwidth 6:10.0.3.2"  ETV
vector 1303  CAIN.eNodeB.sctp  "HB Sent 6:10.0.3.2"  ETV
vector 1296  CAIN.eNodeB.sctp  "RTO 6:10.0.3.2"  ETV
vector 1271  CAIN.eNodeB.sctp  "Slow Start Threshold 6:10.0.4.2"  ETV
vector 1272  CAIN.eNodeB.sctp  "Congestion Window 6:10.0.4.2"  ETV
vector 1273  CAIN.eNodeB.sctp  "Bandwidth 6:10.0.4.2"  ETV
vector 1276  CAIN.eNodeB.sctp  "HB Sent 6:10.0.4.2"  ETV
vector 1269  CAIN.eNodeB.sctp  "RTO 6:10.0.4.2"  ETV
vector 1325  CAIN.eNodeB.sctp  "Slow Start Threshold 6:10.0.5.2"  ETV
vector 1326  CAIN.eNodeB.sctp  "Congestion Window 6:10.0.5.2"  ETV
vector 1327  CAIN.eNodeB.sctp  "Bandwidth 6:10.0.5.2"  ETV
vector 1323  CAIN.eNodeB.sctp  "RTO 6:10.0.5.2"  ETV
vector 1076  CAIN.eNodeB.sctp  "HB ACK Sent 1:10.0.5.2"  ETV
vector 1077  CAIN.eNodeB.sctp  "HB Received 1:10.0.5.2"  ETV
vector 1125  CAIN.eNodeB1.sctp  "HB ACK Sent 2:10.0.5.1"  ETV
vector 1126  CAIN.eNodeB1.sctp  "HB Received 2:10.0.5.1"  ETV
vector 1379  CAIN.eNodeB.sctp  "Slow Start Threshold 1:10.0.3.2"  ETV
vector 1380  CAIN.eNodeB.sctp  "Congestion Window 1:10.0.3.2"  ETV
vector 1381  CAIN.eNodeB.sctp  "Bandwidth 1:10.0.3.2"  ETV
vector 1384  CAIN.eNodeB.sctp  "HB Sent 1:10.0.3.2"  ETV
vector 1377  CAIN.eNodeB.sctp  "RTO 1:10.0.3.2"  ETV
vector 1352  CAIN.eNodeB.sctp  "Slow Start Threshold 1:10.0.4.2"  ETV
vector 1353  CAIN.eNodeB.sctp  "Congestion Window 1:10.0.4.2"  ETV
vector 1354  CAIN.eNodeB.sctp  "Bandwidth 1:10.0.4.2"  ETV
vector 1357  CAIN.eNodeB.sctp  "HB Sent 1:10.0.4.2"  ETV
vector 1350  CAIN.eNodeB.sctp  "RTO 1:10.0.4.2"  ETV
vector 1070  CAIN.eNodeB.sctp  "Slow Start Threshold 1:10.0.5.2"  ETV
vector 1071  CAIN.eNodeB.sctp  "Congestion Window 1:10.0.5.2"  ETV
vector 1072  CAIN.eNodeB.sctp  "Bandwidth 1:10.0.5.2"  ETV
vector 1068  CAIN.eNodeB.sctp  "RTO 1:10.0.5.2"  ETV
vector 1433  CAIN.eNodeB1.sctp  "Slow Start Threshold 2:10.0.2.2"  ETV
vector 1434  CAIN.eNodeB1.sctp  "Congestion Window 2:10.0.2.2"  ETV
vector 1435  CAIN.eNodeB1.sctp  "Bandwidth 2:10.0.2.2"  ETV
vector 1438  CAIN.eNodeB1.sctp  "HB Sent 2:10.0.2.2"  ETV
vector 1431  CAIN.eNodeB1.sctp  "RTO 2:10.0.2.2"  ETV
vector 1406  CAIN.eNodeB1.sctp  "Slow Start Threshold 2:10.0.4.1"  ETV
vector 1407  CAIN.eNodeB1.sctp  "Congestion Window 2:10.0.4.1"  ETV
vector 1408  CAIN.eNodeB1.sctp  "Bandwidth 2:10.0.4.1"  ETV
vector 1411  CAIN.eNodeB1.sctp  "HB Sent 2:10.0.4.1"  ETV
vector 1404  CAIN.eNodeB1.sctp  "RTO 2:10.0.4.1"  ETV
vector 1119  CAIN.eNodeB1.sctp  "Slow Start Threshold 2:10.0.5.1"  ETV
vector 1120  CAIN.eNodeB1.sctp  "Congestion Window 2:10.0.5.1"  ETV
vector 1121  CAIN.eNodeB1.sctp  "Bandwidth 2:10.0.5.1"  ETV
vector 1117  CAIN.eNodeB1.sctp  "RTO 2:10.0.5.1"  ETV
vector 1333  CAIN.eNodeB.sctp  "HB ACK Received 6:10.0.5.2"  ETV
vector 1324  CAIN.eNodeB.sctp  "RTT 6:10.0.5.2"  ETV
vector 1230  CAIN.eNodeB1.sctp  "HB ACK Received 5:10.0.5.1"  ETV
vector 1221  CAIN.eNodeB1.sctp  "RTT 5:10.0.5.1"  ETV
vector 1331  CAIN.eNodeB.sctp  "HB ACK Sent 6:10.0.5.2"  ETV
vector 1332  CAIN.eNodeB.sctp  "HB Received 6:10.0.5.2"  ETV
vector 1228  CAIN.eNodeB1.sctp  "HB ACK Sent 5:10.0.5.1"  ETV
vector 1229  CAIN.eNodeB1.sctp  "HB Received 5:10.0.5.1"  ETV
vector 1127  CAIN.eNodeB1.sctp  "HB ACK Received 2:10.0.5.1"  ETV
vector 1118  CAIN.eNodeB1.sctp  "RTT 2:10.0.5.1"  ETV
vector 1078  CAIN.eNodeB.sctp  "HB ACK Received 1:10.0.5.2"  ETV
vector 1069  CAIN.eNodeB.sctp  "RTT 1:10.0.5.2"  ETV
vector 96  CAIN.eNodeB.nic.mac  receivedPacketFromLowerLayer:vector(packetBytes)  ETV
attr interpolationmode  none
attr source  receivedPacketFromLowerLayer
vector 1465  CAIN.eNodeB.sctp  "SendQueue of Association 6"  ETV
vector 1328  CAIN.eNodeB.sctp  "TSN Sent 6:10.0.5.2"  ETV
vector 1335  CAIN.eNodeB.sctp  "Outstanding Bytes 6:10.0.5.2"  ETV
vector 1008  CAIN.eNodeB.sctp  "Outstanding Bytes 3:Total"  ETV
vector 1334  CAIN.eNodeB.sctp  "Queued Sent Bytes 6:10.0.5.2"  ETV
vector 1007  CAIN.eNodeB.sctp  "Queued Sent Bytes 3:Total"  ETV
vector 1123  CAIN.eNodeB1.sctp  "TSN Received 2:10.0.5.1"  ETV
vector 1099  CAIN.eNodeB1.sctp  "Queued Received Bytes 2:Total"  ETV
vector 1095  CAIN.eNodeB1.sctp  "Advertised Receiver Window 2"  ETV
vector 1104  CAIN.eNodeB1.sctp  "Number of Total Gap Blocks Stored 2"  ETV
vector 1105  CAIN.eNodeB1.sctp  "Number of Revokable Gap Blocks Stored 2"  ETV
vector 1106  CAIN.eNodeB1.sctp  "Number of Non-Revokable Gap Blocks Stored 2"  ETV
vector 1107  CAIN.eNodeB1.sctp  "Number of Duplicate TSNs Stored 2"  ETV
vector 1111  CAIN.eNodeB1.sctp  "Length of SACK Sent 2"  ETV
vector 1108  CAIN.eNodeB1.sctp  "Number of Revokable Gap Blocks Sent 2"  ETV
vector 1109  CAIN.eNodeB1.sctp  "Number of Non-Revokable Gap Blocks Sent 2"  ETV
vector 1110  CAIN.eNodeB1.sctp  "Number of Duplicate TSNs Sent 2"  ETV
vector 1115  CAIN.eNodeB1.sctp  "End to End Delay of Association 2"  ETV
vector 199  CAIN.eNodeB1.x2App[0].client  rcvdPk:vector(packetBytes)  ETV
attr interpolationmode  none
attr source  rcvdPk
attr title  "packets received, vector(packetBytes)"
vector 1464  CAIN.eNodeB.sctp  "Number of Gap Blocks in Last SACK of Association 6"  ETV
vector 1009  CAIN.eNodeB.sctp  "Number of Revokable Gap Blocks in SACK 3"  ETV
vector 1010  CAIN.eNodeB.sctp  "Number of Non-Revokable Gap Blocks in SACK 3"  ETV
vector 1345  CAIN.eNodeB.sctp  "TSN Acked CumAck 6:10.0.5.2"  ETV
vector 1311  CAIN.eNodeB.sctp  "Number of Gap Acked Chunks in Last SACK 6:10.0.3.2"  ETV
vector 1312  CAIN.eNodeB.sctp  "Number of Non-Revokable Gap Acked Chunks in Last SACK 6:10.0.3.2"  ETV
vector 1313  CAIN.eNodeB.sctp  "Number of Gap Missed Chunks in Last SACK 6:10.0.3.2"  ETV
vector 1284  CAIN.eNodeB.sctp  "Number of Gap Acked Chunks in Last SACK 6:10.0.4.2"  ETV
vector 1285  CAIN.eNodeB.sctp  "Number of Non-Revokable Gap Acked Chunks in Last SACK 6:10.0.4.2"  ETV
vector 1286  CAIN.eNodeB.sctp  "Number of Gap Missed Chunks in Last SACK 6:10.0.4.2"  ETV
vector 1338  CAIN.eNodeB.sctp  "Number of Gap Acked Chunks in Last SACK 6:10.0.5.2"  ETV
vector 1339  CAIN.eNodeB.sctp  "Number of Non-Revokable Gap Acked Chunks in Last SACK 6:10.0.5.2"  ETV
vector 1340  CAIN.eNodeB.sctp  "Number of Gap Missed Chunks in Last SACK 6:10.0.5.2"  ETV
vector 1019  CAIN.eNodeB.sctp  "Arwnd in Last SACK 3"  ETV
vector 1347  CAIN.eNodeB.sctp  "TSN PseudoCumAck 6:10.0.5.2"  ETV
vector 1348  CAIN.eNodeB.sctp  "TSN RTXPseudoCumAck 6:10.0.5.2"  ETV
vector 1341  CAIN.eNodeB.sctp  "Partial Bytes Acked 6:10.0.5.2"  ETV
vector 1493  CAIN.ueD2DTx[13].tcp  tcpRcvQueueBytes  ETV
vector 1480  CAIN.ueD2DTx[13].tcp  "advertised window"  ETV
vector 1479  CAIN.ueD2DTx[13].tcp  "receive window"  ETV
vector 1482  CAIN.ueD2DTx[13].tcp  "sent ack"  ETV
vector 621  CAIN.ueD2DTx[13].nic.pdcpRrc  receivedPacketFromUpperLayer:vector(packetBytes)  ETV
attr interpolationmode  none
attr source  receivedPacketFromUpperLayer
vector 624  CAIN.ueD2DTx[13].nic.pdcpRrc  sentPacketToLowerLayer:vector(packetBytes)  ETV
attr interpolationmode  none
attr source  sentPacketToLowerLayer
vector 625  CAIN.ueD2DTx[13].nic.mac  receivedPacketFromUpperLayer:vector(packetBytes)  ETV
attr interpolationmode  none
attr source  receivedPacketFromUpperLayer
vector 628  CAIN.ueD2DTx[13].nic.mac  sentPacketToLowerLayer:vector(packetBytes)  ETV
attr interpolationmode  none
attr source  sentPacketToLowerLayer
vector 111  CAIN.eNodeB.nic.mac  racpkt:vector  ETV
attr interpolationmode  none
attr title  "eNB received racpkt message, vector"
vector 112  CAIN.eNodeB.nic.mac  racDistanceSignal:vector  ETV
attr interpolationmode  none
attr title  "Rac distance to enb, vector"
vector 113  CAIN.eNodeB.nic.mac  racServedDevsSignal:vector  ETV
attr interpolationmode  none
attr title  "# of devices served on rac arriavall, vector"
vector 98  CAIN.eNodeB.nic.mac  sentPacketToLowerLayer:vector(packetBytes)  ETV
attr interpolationmode  none
attr source  sentPacketToLowerLayer
vector 626  CAIN.ueD2DTx[13].nic.mac  receivedPacketFromLowerLayer:vector(packetBytes)  ETV
attr interpolationmode  none
attr source  receivedPacketFromLowerLayer
vector 627  CAIN.ueD2DTx[13].nic.mac  sentPacketToUpperLayer:vector(packetBytes)  ETV
attr interpolationmode  none
attr source  sentPacketToUpperLayer
vector 1517  CAIN.ueD2DTx[18].tcp  tcpRcvQueueBytes  ETV
vector 1504  CAIN.ueD2DTx[18].tcp  "advertised window"  ETV
vector 1503  CAIN.ueD2DTx[18].tcp  "receive window"  ETV
vector 1506  CAIN.ueD2DTx[18].tcp  "sent ack"  ETV
vector 781  CAIN.ueD2DTx[18].nic.pdcpRrc  receivedPacketFromUpperLayer:vector(packetBytes)  ETV
attr interpolationmode  none
attr source  receivedPacketFromUpperLayer
vector 784  CAIN.ueD2DTx[18].nic.pdcpRrc  sentPacketToLowerLayer:vector(packetBytes)  ETV
attr interpolationmode  none
attr source  sentPacketToLowerLayer
vector 785  CAIN.ueD2DTx[18].nic.mac  receivedPacketFromUpperLayer:vector(packetBytes)  ETV
attr interpolationmode  none
attr source  receivedPacketFromUpperLayer
vector 788  CAIN.ueD2DTx[18].nic.mac  sentPacketToLowerLayer:vector(packetBytes)  ETV
attr interpolationmode  none
attr source  sentPacketToLowerLayer
vector 786  CAIN.ueD2DTx[18].nic.mac  receivedPacketFromLowerLayer:vector(packetBytes)  ETV
attr interpolationmode  none
attr source  receivedPacketFromLowerLayer
vector 787  CAIN.ueD2DTx[18].nic.mac  sentPacketToUpperLayer:vector(packetBytes)  ETV
attr interpolationmode  none
attr source  sentPacketToUpperLayer
vector 1541  CAIN.ueD2DTx[6].tcp  tcpRcvQueueBytes  ETV
vector 1528  CAIN.ueD2DTx[6].tcp  "advertised window"  ETV
vector 1527  CAIN.ueD2DTx[6].tcp  "receive window"  ETV
vector 1530  CAIN.ueD2DTx[6].tcp  "sent ack"  ETV
vector 397  CAIN.ueD2DTx[6].nic.pdcpRrc  receivedPacketFromUpperLayer:vector(packetBytes)  ETV
attr interpolationmode  none
attr source  receivedPacketFromUpperLayer
vector 400  CAIN.ueD2DTx[6].nic.pdcpRrc  sentPacketToLowerLayer:vector(packetBytes)  ETV
attr interpolationmode  none
attr source  sentPacketToLowerLayer
vector 401  CAIN.ueD2DTx[6].nic.mac  receivedPacketFromUpperLayer:vector(packetBytes)  ETV
attr interpolationmode  none
attr source  receivedPacketFromUpperLayer
vector 411  CAIN.ueD2DTx[6].nic.mac  CainHopMessageSent:vector  ETV
attr interpolationmode  none
attr title  "# of Sent CAIN hop message, vector"
vector 404  CAIN.ueD2DTx[6].nic.mac  sentPacketToLowerLayer:vector(packetBytes)  ETV
attr interpolationmode  none
attr source  sentPacketToLowerLayer
vector 1565  CAIN.ueD2DTx[14].tcp  tcpRcvQueueBytes  ETV
vector 1552  CAIN.ueD2DTx[14].tcp  "advertised window"  ETV
vector 1551  CAIN.ueD2DTx[14].tcp  "receive window"  ETV
vector 1554  CAIN.ueD2DTx[14].tcp  "sent ack"  ETV
vector 653  CAIN.ueD2DTx[14].nic.pdcpRrc  receivedPacketFromUpperLayer:vector(packetBytes)  ETV
attr interpolationmode  none
attr source  receivedPacketFromUpperLayer
vector 656  CAIN.ueD2DTx[14].nic.pdcpRrc  sentPacketToLowerLayer:vector(packetBytes)  ETV
attr interpolationmode  none
attr source  sentPacketToLowerLayer
vector 657  CAIN.ueD2DTx[14].nic.mac  receivedPacketFromUpperLayer:vector(packetBytes)  ETV
attr interpolationmode  none
attr source  receivedPacketFromUpperLayer
vector 667  CAIN.ueD2DTx[14].nic.mac  CainHopMessageSent:vector  ETV
attr interpolationmode  none
attr title  "# of Sent CAIN hop message, vector"
vector 660  CAIN.ueD2DTx[14].nic.mac  sentPacketToLowerLayer:vector(packetBytes)  ETV
attr interpolationmode  none
attr source  sentPacketToLowerLayer
vector 690  CAIN.ueD2DTx[15].nic.mac  receivedPacketFromLowerLayer:vector(packetBytes)  ETV
attr interpolationmode  none
attr source  receivedPacketFromLowerLayer
vector 692  CAIN.ueD2DTx[15].nic.mac  sentPacketToLowerLayer:vector(packetBytes)  ETV
attr interpolationmode  none
attr source  sentPacketToLowerLayer
vector 1589  CAIN.ueD2DTx[12].tcp  tcpRcvQueueBytes  ETV
vector 1576  CAIN.ueD2DTx[12].tcp  "advertised window"  ETV
vector 1575  CAIN.ueD2DTx[12].tcp  "receive window"  ETV
vector 1578  CAIN.ueD2DTx[12].tcp  "sent ack"  ETV
vector 589  CAIN.ueD2DTx[12].nic.pdcpRrc  receivedPacketFromUpperLayer:vector(packetBytes)  ETV
attr interpolationmode  none
attr source  receivedPacketFromUpperLayer
vector 592  CAIN.ueD2DTx[12].nic.pdcpRrc  sentPacketToLowerLayer:vector(packetBytes)  ETV
attr interpolationmode  none
attr source  sentPacketToLowerLayer
vector 593  CAIN.ueD2DTx[12].nic.mac  receivedPacketFromUpperLayer:vector(packetBytes)  ETV
attr interpolationmode  none
attr source  receivedPacketFromUpperLayer
vector 602  CAIN.ueD2DTx[12].nic.mac  CainMessageSent:vector  ETV
attr interpolationmode  none
attr title  "# of Sent CAIN message, vector"
vector 596  CAIN.ueD2DTx[12].nic.mac  sentPacketToLowerLayer:vector(packetBytes)  ETV
attr interpolationmode  none
attr source  sentPacketToLowerLayer
vector 106  CAIN.eNodeB.nic.mac  DistanceSignal:vector  ETV
attr interpolationmode  none
attr title  "Distance to enb, vector"
vector 101  CAIN.eNodeB.nic.mac  CainHopMessage:vector  ETV
attr interpolationmode  none
attr title  "eNB received CAIN hop message, vector"
vector 100  CAIN.eNodeB.nic.mac  CainMessage:vector  ETV
attr interpolationmode  none
attr title  "eNB received CAIN message, vector"
vector 109  CAIN.eNodeB.nic.mac  ServedHopDevs:vector  ETV
attr interpolationmode  none
attr title  "# of devices served on hop forwarding, vector"
vector 1613  CAIN.ueD2DTx[2].tcp  tcpRcvQueueBytes  ETV
vector 1600  CAIN.ueD2DTx[2].tcp  "advertised window"  ETV
vector 1599  CAIN.ueD2DTx[2].tcp  "receive window"  ETV
vector 1602  CAIN.ueD2DTx[2].tcp  "sent ack"  ETV
vector 269  CAIN.ueD2DTx[2].nic.pdcpRrc  receivedPacketFromUpperLayer:vector(packetBytes)  ETV
attr interpolationmode  none
attr source  receivedPacketFromUpperLayer
vector 272  CAIN.ueD2DTx[2].nic.pdcpRrc  sentPacketToLowerLayer:vector(packetBytes)  ETV
attr interpolationmode  none
attr source  sentPacketToLowerLayer
vector 273  CAIN.ueD2DTx[2].nic.mac  receivedPacketFromUpperLayer:vector(packetBytes)  ETV
attr interpolationmode  none
attr source  receivedPacketFromUpperLayer
vector 276  CAIN.ueD2DTx[2].nic.mac  sentPacketToLowerLayer:vector(packetBytes)  ETV
attr interpolationmode  none
attr source  sentPacketToLowerLayer
vector 108  CAIN.eNodeB.nic.mac  ServedDevs:vector  ETV
attr interpolationmode  none
attr title  "# of devices served on cain forwarding, vector"
vector 1637  CAIN.ueD2DTx[15].tcp  tcpRcvQueueBytes  ETV
vector 1624  CAIN.ueD2DTx[15].tcp  "advertised window"  ETV
vector 1623  CAIN.ueD2DTx[15].tcp  "receive window"  ETV
vector 1626  CAIN.ueD2DTx[15].tcp  "sent ack"  ETV
vector 685  CAIN.ueD2DTx[15].nic.pdcpRrc  receivedPacketFromUpperLayer:vector(packetBytes)  ETV
attr interpolationmode  none
attr source  receivedPacketFromUpperLayer
vector 688  CAIN.ueD2DTx[15].nic.pdcpRrc  sentPacketToLowerLayer:vector(packetBytes)  ETV
attr interpolationmode  none
attr source  sentPacketToLowerLayer
vector 689  CAIN.ueD2DTx[15].nic.mac  receivedPacketFromUpperLayer:vector(packetBytes)  ETV
attr interpolationmode  none
attr source  receivedPacketFromUpperLayer
vector 698  CAIN.ueD2DTx[15].nic.mac  CainMessageSent:vector  ETV
attr interpolationmode  none
attr title  "# of Sent CAIN message, vector"
vector 274  CAIN.ueD2DTx[2].nic.mac  receivedPacketFromLowerLayer:vector(packetBytes)  ETV
attr interpolationmode  none
attr source  receivedPacketFromLowerLayer
vector 1661  CAIN.ueD2DTx[3].tcp  tcpRcvQueueBytes  ETV
vector 1648  CAIN.ueD2DTx[3].tcp  "advertised window"  ETV
vector 1647  CAIN.ueD2DTx[3].tcp  "receive window"  ETV
vector 1650  CAIN.ueD2DTx[3].tcp  "sent ack"  ETV
vector 301  CAIN.ueD2DTx[3].nic.pdcpRrc  receivedPacketFromUpperLayer:vector(packetBytes)  ETV
attr interpolationmode  none
attr source  receivedPacketFromUpperLayer
vector 304  CAIN.ueD2DTx[3].nic.pdcpRrc  sentPacketToLowerLayer:vector(packetBytes)  ETV
attr interpolationmode  none
attr source  sentPacketToLowerLayer
vector 305  CAIN.ueD2DTx[3].nic.mac  receivedPacketFromUpperLayer:vector(packetBytes)  ETV
attr interpolationmode  none
attr source  receivedPacketFromUpperLayer
vector 275  CAIN.ueD2DTx[2].nic.mac  sentPacketToUpperLayer:vector(packetBytes)  ETV
attr interpolationmode  none
attr source  sentPacketToUpperLayer
vector 308  CAIN.ueD2DTx[3].nic.mac  sentPacketToLowerLayer:vector(packetBytes)  ETV
attr interpolationmode  none
attr source  sentPacketToLowerLayer
vector 306  CAIN.ueD2DTx[3].nic.mac  receivedPacketFromLowerLayer:vector(packetBytes)  ETV
attr interpolationmode  none
attr source  receivedPacketFromLowerLayer
vector 1685  CAIN.ueD2DTx[8].tcp  tcpRcvQueueBytes  ETV
vector 1672  CAIN.ueD2DTx[8].tcp  "advertised window"  ETV
vector 1671  CAIN.ueD2DTx[8].tcp  "receive window"  ETV
vector 1674  CAIN.ueD2DTx[8].tcp  "sent ack"  ETV
vector 461  CAIN.ueD2DTx[8].nic.pdcpRrc  receivedPacketFromUpperLayer:vector(packetBytes)  ETV
attr interpolationmode  none
attr source  receivedPacketFromUpperLayer
vector 464  CAIN.ueD2DTx[8].nic.pdcpRrc  sentPacketToLowerLayer:vector(packetBytes)  ETV
attr interpolationmode  none
attr source  sentPacketToLowerLayer
vector 465  CAIN.ueD2DTx[8].nic.mac  receivedPacketFromUpperLayer:vector(packetBytes)  ETV
attr interpolationmode  none
attr source  receivedPacketFromUpperLayer
vector 307  CAIN.ueD2DTx[3].nic.mac  sentPacketToUpperLayer:vector(packetBytes)  ETV
attr interpolationmode  none
attr source  sentPacketToUpperLayer
vector 474  CAIN.ueD2DTx[8].nic.mac  CainMessageSent:vector  ETV
attr interpolationmode  none
attr title  "# of Sent CAIN message, vector"
vector 468  CAIN.ueD2DTx[8].nic.mac  sentPacketToLowerLayer:vector(packetBytes)  ETV
attr interpolationmode  none
attr source  sentPacketToLowerLayer
vector 793  CAIN.ueD2DTx[18].nic.mac  DropedHopMessage:vector  ETV
attr interpolationmode  none
attr title  "Droped Hop CAIN message due to RB not available, vector"
vector 242  CAIN.ueD2DTx[1].nic.mac  receivedPacketFromLowerLayer:vector(packetBytes)  ETV
attr interpolationmode  none
attr source  receivedPacketFromLowerLayer
vector 244  CAIN.ueD2DTx[1].nic.mac  sentPacketToLowerLayer:vector(packetBytes)  ETV
attr interpolationmode  none
attr source  sentPacketToLowerLayer
vector 792  CAIN.ueD2DTx[18].nic.mac  DropedCainMessage:vector  ETV
attr interpolationmode  none
attr title  "Droped CAIN message due to RB not available, vector"
vector 248  CAIN.ueD2DTx[1].nic.mac  DropedCainMessage:vector  ETV
attr interpolationmode  none
attr title  "Droped CAIN message due to RB not available, vector"
vector 1709  CAIN.ueD2DTx[23].tcp  tcpRcvQueueBytes  ETV
vector 1696  CAIN.ueD2DTx[23].tcp  "advertised window"  ETV
vector 1695  CAIN.ueD2DTx[23].tcp  "receive window"  ETV
vector 1698  CAIN.ueD2DTx[23].tcp  "sent ack"  ETV
vector 941  CAIN.ueD2DTx[23].nic.pdcpRrc  receivedPacketFromUpperLayer:vector(packetBytes)  ETV
attr interpolationmode  none
attr source  receivedPacketFromUpperLayer
vector 944  CAIN.ueD2DTx[23].nic.pdcpRrc  sentPacketToLowerLayer:vector(packetBytes)  ETV
attr interpolationmode  none
attr source  sentPacketToLowerLayer
vector 945  CAIN.ueD2DTx[23].nic.mac  receivedPacketFromUpperLayer:vector(packetBytes)  ETV
attr interpolationmode  none
attr source  receivedPacketFromUpperLayer
vector 954  CAIN.ueD2DTx[23].nic.mac  CainMessageSent:vector  ETV
attr interpolationmode  none
attr title  "# of Sent CAIN message, vector"
vector 948  CAIN.ueD2DTx[23].nic.mac  sentPacketToLowerLayer:vector(packetBytes)  ETV
attr interpolationmode  none
attr source  sentPacketToLowerLayer
vector 1733  CAIN.ueD2DTx[11].tcp  tcpRcvQueueBytes  ETV
vector 1720  CAIN.ueD2DTx[11].tcp  "advertised window"  ETV
vector 1719  CAIN.ueD2DTx[11].tcp  "receive window"  ETV
vector 1722  CAIN.ueD2DTx[11].tcp  "sent ack"  ETV
vector 557  CAIN.ueD2DTx[11].nic.pdcpRrc  receivedPacketFromUpperLayer:vector(packetBytes)  ETV
attr interpolationmode  none
attr source  receivedPacketFromUpperLayer
vector 560  CAIN.ueD2DTx[11].nic.pdcpRrc  sentPacketToLowerLayer:vector(packetBytes)  ETV
attr interpolationmode  none
attr source  sentPacketToLowerLayer
vector 561  CAIN.ueD2DTx[11].nic.mac  receivedPacketFromUpperLayer:vector(packetBytes)  ETV
attr interpolationmode  none
attr source  receivedPacketFromUpperLayer
vector 571  CAIN.ueD2DTx[11].nic.mac  CainHopMessageSent:vector  ETV
attr interpolationmode  none
attr title  "# of Sent CAIN hop message, vector"
vector 564  CAIN.ueD2DTx[11].nic.mac  sentPacketToLowerLayer:vector(packetBytes)  ETV
attr interpolationmode  none
attr source  sentPacketToLowerLayer
vector 946  CAIN.ueD2DTx[23].nic.mac  receivedPacketFromLowerLayer:vector(packetBytes)  ETV
attr interpolationmode  none
attr source  receivedPacketFromLowerLayer
vector 338  CAIN.ueD2DTx[4].nic.mac  receivedPacketFromLowerLayer:vector(packetBytes)  ETV
attr interpolationmode  none
attr source  receivedPacketFromLowerLayer
vector 340  CAIN.ueD2DTx[4].nic.mac  sentPacketToLowerLayer:vector(packetBytes)  ETV
attr interpolationmode  none
attr source  sentPacketToLowerLayer
vector 345  CAIN.ueD2DTx[4].nic.mac  DropedHopMessage:vector  ETV
attr interpolationmode  none
attr title  "Droped Hop CAIN message due to RB not available, vector"
vector 1757  CAIN.ueD2DTx[7].tcp  tcpRcvQueueBytes  ETV
vector 1744  CAIN.ueD2DTx[7].tcp  "advertised window"  ETV
vector 1743  CAIN.ueD2DTx[7].tcp  "receive window"  ETV
vector 1746  CAIN.ueD2DTx[7].tcp  "sent ack"  ETV
vector 429  CAIN.ueD2DTx[7].nic.pdcpRrc  receivedPacketFromUpperLayer:vector(packetBytes)  ETV
attr interpolationmode  none
attr source  receivedPacketFromUpperLayer
vector 432  CAIN.ueD2DTx[7].nic.pdcpRrc  sentPacketToLowerLayer:vector(packetBytes)  ETV
attr interpolationmode  none
attr source  sentPacketToLowerLayer
vector 433  CAIN.ueD2DTx[7].nic.mac  receivedPacketFromUpperLayer:vector(packetBytes)  ETV
attr interpolationmode  none
attr source  receivedPacketFromUpperLayer
vector 442  CAIN.ueD2DTx[7].nic.mac  CainMessageSent:vector  ETV
attr interpolationmode  none
attr title  "# of Sent CAIN message, vector"
vector 436  CAIN.ueD2DTx[7].nic.mac  sentPacketToLowerLayer:vector(packetBytes)  ETV
attr interpolationmode  none
attr source  sentPacketToLowerLayer
vector 1461  CAIN.eNodeB1.sctp  "SendQueue of Association 5"  ETV
vector 1225  CAIN.eNodeB1.sctp  "TSN Sent 5:10.0.5.1"  ETV
vector 1232  CAIN.eNodeB1.sctp  "Outstanding Bytes 5:10.0.5.1"  ETV
vector 1030  CAIN.eNodeB1.sctp  "Outstanding Bytes 4:Total"  ETV
vector 1231  CAIN.eNodeB1.sctp  "Queued Sent Bytes 5:10.0.5.1"  ETV
vector 1029  CAIN.eNodeB1.sctp  "Queued Sent Bytes 4:Total"  ETV
vector 1074  CAIN.eNodeB.sctp  "TSN Received 1:10.0.5.2"  ETV
vector 1050  CAIN.eNodeB.sctp  "Queued Received Bytes 1:Total"  ETV
vector 1046  CAIN.eNodeB.sctp  "Advertised Receiver Window 1"  ETV
vector 1055  CAIN.eNodeB.sctp  "Number of Total Gap Blocks Stored 1"  ETV
vector 1056  CAIN.eNodeB.sctp  "Number of Revokable Gap Blocks Stored 1"  ETV
vector 1057  CAIN.eNodeB.sctp  "Number of Non-Revokable Gap Blocks Stored 1"  ETV
vector 1058  CAIN.eNodeB.sctp  "Number of Duplicate TSNs Stored 1"  ETV
vector 1062  CAIN.eNodeB.sctp  "Length of SACK Sent 1"  ETV
vector 1059  CAIN.eNodeB.sctp  "Number of Revokable Gap Blocks Sent 1"  ETV
vector 1060  CAIN.eNodeB.sctp  "Number of Non-Revokable Gap Blocks Sent 1"  ETV
vector 1061  CAIN.eNodeB.sctp  "Number of Duplicate TSNs Sent 1"  ETV
vector 1066  CAIN.eNodeB.sctp  "End to End Delay of Association 1"  ETV
vector 141  CAIN.eNodeB.x2App[0].client  rcvdPk:vector(packetBytes)  ETV
attr interpolationmode  none
attr source  rcvdPk
attr title  "packets received, vector(packetBytes)"
vector 1460  CAIN.eNodeB1.sctp  "Number of Gap Blocks in Last SACK of Association 5"  ETV
vector 1031  CAIN.eNodeB1.sctp  "Number of Revokable Gap Blocks in SACK 4"  ETV
vector 1032  CAIN.eNodeB1.sctp  "Number of Non-Revokable Gap Blocks in SACK 4"  ETV
vector 1242  CAIN.eNodeB1.sctp  "TSN Acked CumAck 5:10.0.5.1"  ETV
vector 1208  CAIN.eNodeB1.sctp  "Number of Gap Acked Chunks in Last SACK 5:10.0.2.2"  ETV
vector 1209  CAIN.eNodeB1.sctp  "Number of Non-Revokable Gap Acked Chunks in Last SACK 5:10.0.2.2"  ETV
vector 1210  CAIN.eNodeB1.sctp  "Number of Gap Missed Chunks in Last SACK 5:10.0.2.2"  ETV
vector 1181  CAIN.eNodeB1.sctp  "Number of Gap Acked Chunks in Last SACK 5:10.0.4.1"  ETV
vector 1182  CAIN.eNodeB1.sctp  "Number of Non-Revokable Gap Acked Chunks in Last SACK 5:10.0.4.1"  ETV
vector 1183  CAIN.eNodeB1.sctp  "Number of Gap Missed Chunks in Last SACK 5:10.0.4.1"  ETV
vector 1235  CAIN.eNodeB1.sctp  "Number of Gap Acked Chunks in Last SACK 5:10.0.5.1"  ETV
vector 1236  CAIN.eNodeB1.sctp  "Number of Non-Revokable Gap Acked Chunks in Last SACK 5:10.0.5.1"  ETV
vector 1237  CAIN.eNodeB1.sctp  "Number of Gap Missed Chunks in Last SACK 5:10.0.5.1"  ETV
vector 1041  CAIN.eNodeB1.sctp  "Arwnd in Last SACK 4"  ETV
vector 1244  CAIN.eNodeB1.sctp  "TSN PseudoCumAck 5:10.0.5.1"  ETV
vector 1245  CAIN.eNodeB1.sctp  "TSN RTXPseudoCumAck 5:10.0.5.1"  ETV
vector 1238  CAIN.eNodeB1.sctp  "Partial Bytes Acked 5:10.0.5.1"  ETV
vector 1781  CAIN.ueD2DTx[24].tcp  tcpRcvQueueBytes  ETV
vector 1768  CAIN.ueD2DTx[24].tcp  "advertised window"  ETV
vector 1767  CAIN.ueD2DTx[24].tcp  "receive window"  ETV
vector 1770  CAIN.ueD2DTx[24].tcp  "sent ack"  ETV
vector 973  CAIN.ueD2DTx[24].nic.pdcpRrc  receivedPacketFromUpperLayer:vector(packetBytes)  ETV
attr interpolationmode  none
attr source  receivedPacketFromUpperLayer
vector 976  CAIN.ueD2DTx[24].nic.pdcpRrc  sentPacketToLowerLayer:vector(packetBytes)  ETV
attr interpolationmode  none
attr source  sentPacketToLowerLayer
vector 977  CAIN.ueD2DTx[24].nic.mac  receivedPacketFromUpperLayer:vector(packetBytes)  ETV
attr interpolationmode  none
attr source  receivedPacketFromUpperLayer
vector 1805  CAIN.ueD2DTx[4].tcp  tcpRcvQueueBytes  ETV
vector 1792  CAIN.ueD2DTx[4].tcp  "advertised window"  ETV
vector 1791  CAIN.ueD2DTx[4].tcp  "receive window"  ETV
vector 1794  CAIN.ueD2DTx[4].tcp  "sent ack"  ETV
vector 333  CAIN.ueD2DTx[4].nic.pdcpRrc  receivedPacketFromUpperLayer:vector(packetBytes)  ETV
attr interpolationmode  none
attr source  receivedPacketFromUpperLayer
vector 336  CAIN.ueD2DTx[4].nic.pdcpRrc  sentPacketToLowerLayer:vector(packetBytes)  ETV
attr interpolationmode  none
attr source  sentPacketToLowerLayer
vector 337  CAIN.ueD2DTx[4].nic.mac  receivedPacketFromUpperLayer:vector(packetBytes)  ETV
attr interpolationmode  none
attr source  receivedPacketFromUpperLayer
vector 986  CAIN.ueD2DTx[24].nic.mac  CainMessageSent:vector  ETV
attr interpolationmode  none
attr title  "# of Sent CAIN message, vector"
vector 980  CAIN.ueD2DTx[24].nic.mac  sentPacketToLowerLayer:vector(packetBytes)  ETV
attr interpolationmode  none
attr source  sentPacketToLowerLayer
vector 154  CAIN.eNodeB1.nic.mac  receivedPacketFromLowerLayer:vector(packetBytes)  ETV
attr interpolationmode  none
attr source  receivedPacketFromLowerLayer
vector 1829  CAIN.ueD2DTx[16].tcp  tcpRcvQueueBytes  ETV
vector 1816  CAIN.ueD2DTx[16].tcp  "advertised window"  ETV
vector 1815  CAIN.ueD2DTx[16].tcp  "receive window"  ETV
vector 1818  CAIN.ueD2DTx[16].tcp  "sent ack"  ETV
vector 717  CAIN.ueD2DTx[16].nic.pdcpRrc  receivedPacketFromUpperLayer:vector(packetBytes)  ETV
attr interpolationmode  none
attr source  receivedPacketFromUpperLayer
vector 720  CAIN.ueD2DTx[16].nic.pdcpRrc  sentPacketToLowerLayer:vector(packetBytes)  ETV
attr interpolationmode  none
attr source  sentPacketToLowerLayer
vector 721  CAIN.ueD2DTx[16].nic.mac  receivedPacketFromUpperLayer:vector(packetBytes)  ETV
attr interpolationmode  none
attr source  receivedPacketFromUpperLayer
vector 724  CAIN.ueD2DTx[16].nic.mac  sentPacketToLowerLayer:vector(packetBytes)  ETV
attr interpolationmode  none
attr source  sentPacketToLowerLayer
vector 1853  CAIN.ueD2DTx[1].tcp  tcpRcvQueueBytes  ETV
vector 1840  CAIN.ueD2DTx[1].tcp  "advertised window"  ETV
vector 1839  CAIN.ueD2DTx[1].tcp  "receive window"  ETV
vector 1842  CAIN.ueD2DTx[1].tcp  "sent ack"  ETV
vector 237  CAIN.ueD2DTx[1].nic.pdcpRrc  receivedPacketFromUpperLayer:vector(packetBytes)  ETV
attr interpolationmode  none
attr source  receivedPacketFromUpperLayer
vector 240  CAIN.ueD2DTx[1].nic.pdcpRrc  sentPacketToLowerLayer:vector(packetBytes)  ETV
attr interpolationmode  none
attr source  sentPacketToLowerLayer
vector 241  CAIN.ueD2DTx[1].nic.mac  receivedPacketFromUpperLayer:vector(packetBytes)  ETV
attr interpolationmode  none
attr source  receivedPacketFromUpperLayer
vector 169  CAIN.eNodeB1.nic.mac  racpkt:vector  ETV
attr interpolationmode  none
attr title  "eNB received racpkt message, vector"
vector 170  CAIN.eNodeB1.nic.mac  racDistanceSignal:vector  ETV
attr interpolationmode  none
attr title  "Rac distance to enb, vector"
vector 171  CAIN.eNodeB1.nic.mac  racServedDevsSignal:vector  ETV
attr interpolationmode  none
attr title  "# of devices served on rac arriavall, vector"
vector 156  CAIN.eNodeB1.nic.mac  sentPacketToLowerLayer:vector(packetBytes)  ETV
attr interpolationmode  none
attr source  sentPacketToLowerLayer
vector 722  CAIN.ueD2DTx[16].nic.mac  receivedPacketFromLowerLayer:vector(packetBytes)  ETV
attr interpolationmode  none
attr source  receivedPacketFromLowerLayer
vector 243  CAIN.ueD2DTx[1].nic.mac  sentPacketToUpperLayer:vector(packetBytes)  ETV
attr interpolationmode  none
attr source  sentPacketToUpperLayer
vector 1877  CAIN.ueD2DTx[20].tcp  tcpRcvQueueBytes  ETV
vector 1864  CAIN.ueD2DTx[20].tcp  "advertised window"  ETV
vector 1863  CAIN.ueD2DTx[20].tcp  "receive window"  ETV
vector 1866  CAIN.ueD2DTx[20].tcp  "sent ack"  ETV
vector 845  CAIN.ueD2DTx[20].nic.pdcpRrc  receivedPacketFromUpperLayer:vector(packetBytes)  ETV
attr interpolationmode  none
attr source  receivedPacketFromUpperLayer
vector 848  CAIN.ueD2DTx[20].nic.pdcpRrc  sentPacketToLowerLayer:vector(packetBytes)  ETV
attr interpolationmode  none
attr source  sentPacketToLowerLayer
vector 849  CAIN.ueD2DTx[20].nic.mac  receivedPacketFromUpperLayer:vector(packetBytes)  ETV
attr interpolationmode  none
attr source  receivedPacketFromUpperLayer
vector 858  CAIN.ueD2DTx[20].nic.mac  CainMessageSent:vector  ETV
attr interpolationmode  none
attr title  "# of Sent CAIN message, vector"
vector 852  CAIN.ueD2DTx[20].nic.mac  sentPacketToLowerLayer:vector(packetBytes)  ETV
attr interpolationmode  none
attr source  sentPacketToLowerLayer
vector 658  CAIN.ueD2DTx[14].nic.mac  receivedPacketFromLowerLayer:vector(packetBytes)  ETV
attr interpolationmode  none
attr source  receivedPacketFromLowerLayer
vector 1901  CAIN.ueD2DTx[21].tcp  tcpRcvQueueBytes  ETV
vector 1888  CAIN.ueD2DTx[21].tcp  "advertised window"  ETV
vector 1887  CAIN.ueD2DTx[21].tcp  "receive window"  ETV
vector 1890  CAIN.ueD2DTx[21].tcp  "sent ack"  ETV
vector 877  CAIN.ueD2DTx[21].nic.pdcpRrc  receivedPacketFromUpperLayer:vector(packetBytes)  ETV
attr interpolationmode  none
attr source  receivedPacketFromUpperLayer
vector 880  CAIN.ueD2DTx[21].nic.pdcpRrc  sentPacketToLowerLayer:vector(packetBytes)  ETV
attr interpolationmode  none
attr source  sentPacketToLowerLayer
vector 881  CAIN.ueD2DTx[21].nic.mac  receivedPacketFromUpperLayer:vector(packetBytes)  ETV
attr interpolationmode  none
attr source  receivedPacketFromUpperLayer
vector 891  CAIN.ueD2DTx[21].nic.mac  CainHopMessageSent:vector  ETV
attr interpolationmode  none
attr title  "# of Sent CAIN hop message, vector"
vector 884  CAIN.ueD2DTx[21].nic.mac  sentPacketToLowerLayer:vector(packetBytes)  ETV
attr interpolationmode  none
attr source  sentPacketToLowerLayer
vector 850  CAIN.ueD2DTx[20].nic.mac  receivedPacketFromLowerLayer:vector(packetBytes)  ETV
attr interpolationmode  none
attr source  receivedPacketFromLowerLayer
vector 1925  CAIN.ueD2DTx[9].tcp  tcpRcvQueueBytes  ETV
vector 1912  CAIN.ueD2DTx[9].tcp  "advertised window"  ETV
vector 1911  CAIN.ueD2DTx[9].tcp  "receive window"  ETV
vector 1914  CAIN.ueD2DTx[9].tcp  "sent ack"  ETV
vector 493  CAIN.ueD2DTx[9].nic.pdcpRrc  receivedPacketFromUpperLayer:vector(packetBytes)  ETV
attr interpolationmode  none
attr source  receivedPacketFromUpperLayer
vector 496  CAIN.ueD2DTx[9].nic.pdcpRrc  sentPacketToLowerLayer:vector(packetBytes)  ETV
attr interpolationmode  none
attr source  sentPacketToLowerLayer
vector 497  CAIN.ueD2DTx[9].nic.mac  receivedPacketFromUpperLayer:vector(packetBytes)  ETV
attr interpolationmode  none
attr source  receivedPacketFromUpperLayer
vector 506  CAIN.ueD2DTx[9].nic.mac  CainMessageSent:vector  ETV
attr interpolationmode  none
attr title  "# of Sent CAIN message, vector"
vector 500  CAIN.ueD2DTx[9].nic.mac  sentPacketToLowerLayer:vector(packetBytes)  ETV
attr interpolationmode  none
attr source  sentPacketToLowerLayer
vector 914  CAIN.ueD2DTx[22].nic.mac  receivedPacketFromLowerLayer:vector(packetBytes)  ETV
attr interpolationmode  none
attr source  receivedPacketFromLowerLayer
vector 916  CAIN.ueD2DTx[22].nic.mac  sentPacketToLowerLayer:vector(packetBytes)  ETV
attr interpolationmode  none
attr source  sentPacketToLowerLayer
vector 339  CAIN.ueD2DTx[4].nic.mac  sentPacketToUpperLayer:vector(packetBytes)  ETV
attr interpolationmode  none
attr source  sentPacketToUpperLayer
vector 1949  CAIN.ueD2DTx[10].tcp  tcpRcvQueueBytes  ETV
vector 1936  CAIN.ueD2DTx[10].tcp  "advertised window"  ETV
vector 1935  CAIN.ueD2DTx[10].tcp  "receive window"  ETV
vector 1938  CAIN.ueD2DTx[10].tcp  "sent ack"  ETV
vector 525  CAIN.ueD2DTx[10].nic.pdcpRrc  receivedPacketFromUpperLayer:vector(packetBytes)  ETV
attr interpolationmode  none
attr source  receivedPacketFromUpperLayer
vector 528  CAIN.ueD2DTx[10].nic.pdcpRrc  sentPacketToLowerLayer:vector(packetBytes)  ETV
attr interpolationmode  none
attr source  sentPacketToLowerLayer
vector 529  CAIN.ueD2DTx[10].nic.mac  receivedPacketFromUpperLayer:vector(packetBytes)  ETV
attr interpolationmode  none
attr source  receivedPacketFromUpperLayer
vector 532  CAIN.ueD2DTx[10].nic.mac  sentPacketToLowerLayer:vector(packetBytes)  ETV
attr interpolationmode  none
attr source  sentPacketToLowerLayer
vector 920  CAIN.ueD2DTx[22].nic.mac  DropedCainMessage:vector  ETV
attr interpolationmode  none
attr title  "Droped CAIN message due to RB not available, vector"
vector 530  CAIN.ueD2DTx[10].nic.mac  receivedPacketFromLowerLayer:vector(packetBytes)  ETV
attr interpolationmode  none
attr source  receivedPacketFromLowerLayer
vector 531  CAIN.ueD2DTx[10].nic.mac  sentPacketToUpperLayer:vector(packetBytes)  ETV
attr interpolationmode  none
attr source  sentPacketToUpperLayer
vector 1973  CAIN.ueD2DTx[17].tcp  tcpRcvQueueBytes  ETV
vector 1960  CAIN.ueD2DTx[17].tcp  "advertised window"  ETV
vector 1959  CAIN.ueD2DTx[17].tcp  "receive window"  ETV
vector 1962  CAIN.ueD2DTx[17].tcp  "sent ack"  ETV
vector 749  CAIN.ueD2DTx[17].nic.pdcpRrc  receivedPacketFromUpperLayer:vector(packetBytes)  ETV
attr interpolationmode  none
attr source  receivedPacketFromUpperLayer
vector 752  CAIN.ueD2DTx[17].nic.pdcpRrc  sentPacketToLowerLayer:vector(packetBytes)  ETV
attr interpolationmode  none
attr source  sentPacketToLowerLayer
vector 753  CAIN.ueD2DTx[17].nic.mac  receivedPacketFromUpperLayer:vector(packetBytes)  ETV
attr interpolationmode  none
attr source  receivedPacketFromUpperLayer
vector 1997  CAIN.ueD2DTx[0].tcp  tcpRcvQueueBytes  ETV
vector 1984  CAIN.ueD2DTx[0].tcp  "advertised window"  ETV
vector 1983  CAIN.ueD2DTx[0].tcp  "receive window"  ETV
vector 1986  CAIN.ueD2DTx[0].tcp  "sent ack"  ETV
vector 205  CAIN.ueD2DTx[0].nic.pdcpRrc  receivedPacketFromUpperLayer:vector(packetBytes)  ETV
attr interpolationmode  none
attr source  receivedPacketFromUpperLayer
vector 208  CAIN.ueD2DTx[0].nic.pdcpRrc  sentPacketToLowerLayer:vector(packetBytes)  ETV
attr interpolationmode  none
attr source  sentPacketToLowerLayer
vector 209  CAIN.ueD2DTx[0].nic.mac  receivedPacketFromUpperLayer:vector(packetBytes)  ETV
attr interpolationmode  none
attr source  receivedPacketFromUpperLayer
vector 218  CAIN.ueD2DTx[0].nic.mac  CainMessageSent:vector  ETV
attr interpolationmode  none
attr title  "# of Sent CAIN message, vector"
vector 212  CAIN.ueD2DTx[0].nic.mac  sentPacketToLowerLayer:vector(packetBytes)  ETV
attr interpolationmode  none
attr source  sentPacketToLowerLayer
vector 762  CAIN.ueD2DTx[17].nic.mac  CainMessageSent:vector  ETV
attr interpolationmode  none
attr title  "# of Sent CAIN message, vector"
vector 756  CAIN.ueD2DTx[17].nic.mac  sentPacketToLowerLayer:vector(packetBytes)  ETV
attr interpolationmode  none
attr source  sentPacketToLowerLayer
vector 2021  CAIN.ueD2DTx[19].tcp  tcpRcvQueueBytes  ETV
vector 2008  CAIN.ueD2DTx[19].tcp  "advertised window"  ETV
vector 2007  CAIN.ueD2DTx[19].tcp  "receive window"  ETV
vector 2010  CAIN.ueD2DTx[19].tcp  "sent ack"  ETV
vector 813  CAIN.ueD2DTx[19].nic.pdcpRrc  receivedPacketFromUpperLayer:vector(packetBytes)  ETV
attr interpolationmode  none
attr source  receivedPacketFromUpperLayer
vector 816  CAIN.ueD2DTx[19].nic.pdcpRrc  sentPacketToLowerLayer:vector(packetBytes)  ETV
attr interpolationmode  none
attr source  sentPacketToLowerLayer
vector 817  CAIN.ueD2DTx[19].nic.mac  receivedPacketFromUpperLayer:vector(packetBytes)  ETV
attr interpolationmode  none
attr source  receivedPacketFromUpperLayer
vector 2045  CAIN.ueD2DTx[5].tcp  tcpRcvQueueBytes  ETV
vector 2032  CAIN.ueD2DTx[5].tcp  "advertised window"  ETV
vector 2031  CAIN.ueD2DTx[5].tcp  "receive window"  ETV
vector 2034  CAIN.ueD2DTx[5].tcp  "sent ack"  ETV
vector 365  CAIN.ueD2DTx[5].nic.pdcpRrc  receivedPacketFromUpperLayer:vector(packetBytes)  ETV
attr interpolationmode  none
attr source  receivedPacketFromUpperLayer
vector 368  CAIN.ueD2DTx[5].nic.pdcpRrc  sentPacketToLowerLayer:vector(packetBytes)  ETV
attr interpolationmode  none
attr source  sentPacketToLowerLayer
vector 369  CAIN.ueD2DTx[5].nic.mac  receivedPacketFromUpperLayer:vector(packetBytes)  ETV
attr interpolationmode  none
attr source  receivedPacketFromUpperLayer
vector 372  CAIN.ueD2DTx[5].nic.mac  sentPacketToLowerLayer:vector(packetBytes)  ETV
attr interpolationmode  none
attr source  sentPacketToLowerLayer
vector 827  CAIN.ueD2DTx[19].nic.mac  CainHopMessageSent:vector  ETV
attr interpolationmode  none
attr title  "# of Sent CAIN hop message, vector"
vector 820  CAIN.ueD2DTx[19].nic.mac  sentPacketToLowerLayer:vector(packetBytes)  ETV
attr interpolationmode  none
attr source  sentPacketToLowerLayer
vector 2069  CAIN.ueD2DTx[22].tcp  tcpRcvQueueBytes  ETV
vector 2056  CAIN.ueD2DTx[22].tcp  "advertised window"  ETV
vector 2055  CAIN.ueD2DTx[22].tcp  "receive window"  ETV
vector 2058  CAIN.ueD2DTx[22].tcp  "sent ack"  ETV
vector 909  CAIN.ueD2DTx[22].nic.pdcpRrc  receivedPacketFromUpperLayer:vector(packetBytes)  ETV
attr interpolationmode  none
attr source  receivedPacketFromUpperLayer
vector 912  CAIN.ueD2DTx[22].nic.pdcpRrc  sentPacketToLowerLayer:vector(packetBytes)  ETV
attr interpolationmode  none
attr source  sentPacketToLowerLayer
vector 913  CAIN.ueD2DTx[22].nic.mac  receivedPacketFromUpperLayer:vector(packetBytes)  ETV
attr interpolationmode  none
attr source  receivedPacketFromUpperLayer
vector 370  CAIN.ueD2DTx[5].nic.mac  receivedPacketFromLowerLayer:vector(packetBytes)  ETV
attr interpolationmode  none
attr source  receivedPacketFromLowerLayer
vector 915  CAIN.ueD2DTx[22].nic.mac  sentPacketToUpperLayer:vector(packetBytes)  ETV
attr interpolationmode  none
attr source  sentPacketToUpperLayer
vector 659  CAIN.ueD2DTx[14].nic.mac  sentPacketToUpperLayer:vector(packetBytes)  ETV
attr interpolationmode  none
attr source  sentPacketToUpperLayer
vector 978  CAIN.ueD2DTx[24].nic.mac  receivedPacketFromLowerLayer:vector(packetBytes)  ETV
attr interpolationmode  none
attr source  receivedPacketFromLowerLayer
vector 173  CAIN.eNodeB1.nic.phy  averageCqiUlvect:vector  ETV
attr source  averageCqiUlvect
attr title  "Average Cqi reported in UL, vector"
attr unit  cqi
vector 723  CAIN.ueD2DTx[16].nic.mac  sentPacketToUpperLayer:vector(packetBytes)  ETV
attr interpolationmode  none
attr source  sentPacketToUpperLayer
vector 371  CAIN.ueD2DTx[5].nic.mac  sentPacketToUpperLayer:vector(packetBytes)  ETV
attr interpolationmode  none
attr source  sentPacketToUpperLayer
vector 603  CAIN.ueD2DTx[12].nic.mac  CainHopMessageSent:vector  ETV
attr interpolationmode  none
attr title  "# of Sent CAIN hop message, vector"
vector 210  CAIN.ueD2DTx[0].nic.mac  receivedPacketFromLowerLayer:vector(packetBytes)  ETV
attr interpolationmode  none
attr source  receivedPacketFromLowerLayer
vector 443  CAIN.ueD2DTx[7].nic.mac  CainHopMessageSent:vector  ETV
attr interpolationmode  none
attr title  "# of Sent CAIN hop message, vector"
vector 795  CAIN.ueD2DTx[18].nic.mac  CainHopMessageSent:vector  ETV
attr interpolationmode  none
attr title  "# of Sent CAIN hop message, vector"
vector 344  CAIN.ueD2DTx[4].nic.mac  DropedCainMessage:vector  ETV
attr interpolationmode  none
attr title  "Droped CAIN message due to RB not available, vector"
vector 250  CAIN.ueD2DTx[1].nic.mac  CainMessageSent:vector  ETV
attr interpolationmode  none
attr title  "# of Sent CAIN message, vector"
vector 115  CAIN.eNodeB.nic.phy  averageCqiUlvect:vector  ETV
attr source  averageCqiUlvect
attr title  "Average Cqi reported in UL, vector"
attr unit  cqi
vector 219  CAIN.ueD2DTx[0].nic.mac  CainHopMessageSent:vector  ETV
attr interpolationmode  none
attr title  "# of Sent CAIN hop message, vector"
1268	57119 24 175 175 0.0000001228 0.0000001228 1 0 0 0 0
1379	57143 28 260 260 0.0000006304 0.0000006304 1 65535 65535 65535 4294836225
1380	57171 27 260 260 0.0000006304 0.0000006304 1 8940 8940 8940 79923600
1381	57198 29 260 260 0.0000006304 0.0000006304 1 0.3725 0.3725 0.3725 0.13875625
1377	57227 24 260 260 0.0000006304 0.0000006304 1 3 3 3 9
1384	57251 24 260 260 0.0000006304 0.0000006304 1 1 1 1 1
1396	57275 24 188 188 0.0000003096 0.0000003096 1 0 0 0 0
1352	57299 28 260 260 0.0000006304 0.0000006304 1 65535 65535 65535 4294836225
1353	57327 27 260 260 0.0000006304 0.0000006304 1 8940 8940 8940 79923600
1354	57354 29 260 260 0.0000006304 0.0000006304 1 0.3725 0.3725 0.3725 0.13875625
1350	57383 24 260 260 0.0000006304 0.0000006304 1 3 3 3 9
1357	57407 24 260 260 0.0000006304 0.0000006304 1 1 1 1 1
1369	57431 24 188 188 0.0000003096 0.0000003096 1 0 0 0 0
1070	57455 28 260 260 0.0000006304 0.0000006304 1 65535 65535 65535 4294836225
1071	57483 27 260 260 0.0000006304 0.0000006304 1 8940 8940 8940 79923600
1072	57510 29 260 260 0.0000006304 0.0000006304 1 0.3725 0.3725 0.3725 0.13875625
1068	57539 48 260 327 0.0000006304 0.0000008564 2 1 3 4 10
1069	57587 31 327 327 0.0000008564 0.0000008564 1 2.26e-07 2.26e-07 2.26e-07 5.1076e-14
1074	57618 2080 3963 20594 0.0570000972 0.2570015836 72 2000 2071 146556 298345836
1077	59698 46 232 246 0.000000552 0.000000596 2 1 2 3 5
1076	59744 46 232 246 0.000000552 0.000000596 2 1 2 3 5
1078	59790 48 327 333 0.0000008564 0.0000009004 2 1 2 3 5
1087	59838 13 156 156 0 0 1 0 0 0 0
1046	59851 89 3963 36794 0.0570000972 0.4570015836 3 65533 65535 196603 12884246539
1050	59940 1944 3963 36794 0.0570000972 0.4570015836 75 0 128 146 16588
1055	61884 77 3963 36794 0.0570000972 0.4570015836 3 0 0 0 0
1056	61961 77 3963 36794 0.0570000972 0.4570015836 3 0 0 0 0
1057	62038 77 3963 36794 0.0570000972 0.4570015836 3 0 0 0 0
1058	62115 77 3963 36794 0.0570000972 0.4570015836 3 0 0 0 0
1059	62192 77 3963 36794 0.0570000972 0.4570015836 3 0 0 0 0
1060	62269 77 3963 36794 0.0570000972 0.4570015836 3 0 0 0 0
1061	62346 77 3963 36794 0.0570000972 0.4570015836 3 0 0 0 0
1062	62423 80 3963 36794 0.0570000972 0.4570015836 3 16 16 48 768
1064	62503 28 188 188 0.0000003096 0.0000003096 1 65535 65535 65535 4294836225
1066	62531 2503 3966 20659 0.0570000972 0.2570015836 72 9.72e-08 1.1052e-06 7.21824e-05 7.844462208e-11
1067	65034 13 156 156 0 0 1 0 0 0 0
1298	65047 27 203 203 0.000000458 0.000000458 1 65535 65535 65535 4294836225
1299	65074 26 203 203 0.000000458 0.000000458 1 8940 8940 8940 79923600
1300	65100 28 203 203 0.000000458 0.000000458 1 0.3725 0.3725 0.3725 0.13875625
1296	65128 23 203 203 0.000000458 0.000000458 1 3 3 3 9
1303	65151 23 203 203 0.000000458 0.000000458 1 1 1 1 1
1311	65174 76 729 32827 0.0070001912 0.4070016776 3 0 0 0 0
1312	65250 76 729 32827 0.0070001912 0.4070016776 3 0 0 0 0
1313	65326 76 729 32827 0.0070001912 0.4070016776 3 0 0 0 0
1315	65402 24 175 175 0.0000001228 0.0000001228 1 0 0 0 0
1271	65426 27 203 203 0.000000458 0.000000458 1 65535 65535 65535 4294836225
1272	65453 26 203 203 0.000000458 0.000000458 1 8940 8940 8940 79923600
1273	65479 28 203 203 0.000000458 0.000000458 1 0.3725 0.3725 0.3725 0.13875625
1269	65507 23 203 203 0.000000458 0.000000458 1 3 3 3 9
1276	65530 23 203 203 0.000000458 0.000000458 1 1 1 1 1
1284	65553 76 729 32827 0.0070001912 0.4070016776 3 0 0 0 0
1285	65629 76 729 32827 0.0070001912 0.4070016776 3 0 0 0 0
1286	65705 76 729 32827 0.0070001912 0.4070016776 3 0 0 0 0
1288	65781 24 175 175 0.0000001228 0.0000001228 1 0 0 0 0
1325	65805 57 203 92388 0.000000458 1.2070004784 2 65535 65535 131070 8589672450
1326	65862 55 203 92388 0.000000458 1.2070004784 2 8940 8940 17880 159847200
1327	65917 58 203 92388 0.000000458 1.2070004784 2 0.3725 23.84 24.2125 568.48435625
1323	65975 123 203 32827 0.000000458 0.4070016776 5 1 3 7 13
1324	66098 138 280 32827 0.0000006744 0.4070016776 4 1.912e-07 0.2000011992 0.400001894 0.080000594561604
1328	66236 2065 674 16336 0.007 0.2070004784 72 2000 2071 146556 298345836
1332	68301 48 298 312 0.0000007624 0.0000008064 2 1 2 3 5
1331	68349 48 298 312 0.0000007624 0.0000008064 2 1 2 3 5
1333	68397 48 280 290 0.0000006744 0.0000007184 2 1 2 3 5
1334	68445 3872 674 32827 0.007 0.4070016776 144 0 128 8292 700064
1335	72317 3872 674 32827 0.007 0.4070016776 144 0 128 8292 700064
1338	76189 76 729 32827 0.0070001912 0.4070016776 3 0 0 0 0
1339	76265 76 729 32827 0.0070001912 0.4070016776 3 0 0 0 0
1340	76341 76 729 32827 0.0070001912 0.4070016776 3 0 0 0 0
1341	76417 76 729 32827 0.0070001912 0.4070016776 3 0 0 0 0
1342	76493 24 175 175 0.0000001228 0.0000001228 1 0 0 0 0
1345	76517 85 729 32827 0.0070001912 0.4070016776 3 2000 2071 6078 12317090
1347	76602 76 729 32827 0.0070001912 0.4070016776 3 0 0 0 0
1348	76678 76 729 32827 0.0070001912 0.4070016776 3 0 0 0 0
1464	76754 76 729 32827 0.0070001912 0.4070016776 3 0 0 0 0
1465	76830 3246 674 16336 0.007 0.2070004784 144 0 64 4146 175016
1008	80076 3872 674 32827 0.007 0.4070016776 144 0 128 8292 700064
1007	83948 3872 674 32827 0.007 0.4070016776 144 0 128 8292 700064
1009	87820 76 729 32827 0.0070001912 0.4070016776 3 0 0 0 0
1010	87896 76 729 32827 0.0070001912 0.4070016776 3 0 0 0 0
1019	87972 88 729 32827 0.0070001912 0.4070016776 3 65533 65535 196603 12884246539
1020	88060 116 175 32827 0.0000001228 0.4070016776 4 65533 65535 262138 17179082764
1023	88176 13 148 148 0 0 1 0 0 0 0
1165	88189 24 174 174 0.0000001228 0.0000001228 1 0 0 0 0
1433	88213 28 261 261 0.0000006304 0.0000006304 1 65535 65535 65535 4294836225
1434	88241 27 261 261 0.0000006304 0.0000006304 1 8940 8940 8940 79923600
1435	88268 29 261 261 0.0000006304 0.0000006304 1 0.3725 0.3725 0.3725 0.13875625
1431	88297 24 261 261 0.0000006304 0.0000006304 1 3 3 3 9
1438	88321 24 261 261 0.0000006304 0.0000006304 1 1 1 1 1
1450	88345 24 189 189 0.0000003096 0.0000003096 1 0 0 0 0
1406	88369 28 261 261 0.0000006304 0.0000006304 1 65535 65535 65535 4294836225
1407	88397 27 261 261 0.0000006304 0.0000006304 1 8940 8940 8940 79923600
1408	88424 29 261 261 0.0000006304 0.0000006304 1 0.3725 0.3725 0.3725 0.13875625
1404	88453 24 261 261 0.0000006304 0.0000006304 1 3 3 3 9
1411	88477 24 261 261 0.0000006304 0.0000006304 1 1 1 1 1
1423	88501 24 189 189 0.0000003096 0.0000003096 1 0 0 0 0
1119	88525 28 261 261 0.0000006304 0.0000006304 1 65535 65535 65535 4294836225
1120	88553 27 261 261 0.0000006304 0.0000006304 1 8940 8940 8940 79923600
1121	88580 29 261 261 0.0000006304 0.0000006304 1 0.3725 0.3725 0.3725 0.13875625
1117	88609 48 261 326 0.0000006304 0.0000008564 2 1 3 4 10
1118	88657 31 326 326 0.0000008564 0.0000008564 1 2.26e-07 2.26e-07 2.26e-07 5.1076e-14
1123	88688 2072 717 16343 0.0070000972 0.2070015836 72 2000 2071 146556 298345836
1126	90760 46 233 247 0.000000552 0.000000596 2 1 2 3 5
1125	90806 46 233 247 0.000000552 0.000000596 2 1 2 3 5
1127	90852 48 326 332 0.0000008564 0.0000009004 2 1 2 3 5
1136	90900 13 157 157 0 0 1 0 0 0 0
1095	90913 88 717 32820 0.0070000972 0.4070015836 3 65533 65535 196603 12884246539
1099	91001 1935 717 32820 0.0070000972 0.4070015836 75 0 128 146 16588
1104	92936 76 717 32820 0.0070000972 0.4070015836 3 0 0 0 0
1105	93012 76 717 32820 0.0070000972 0.4070015836 3 0 0 0 0
1106	93088 76 717 32820 0.0070000972 0.4070015836 3 0 0 0 0
1107	93164 76 717 32820 0.0070000972 0.4070015836 3 0 0 0 0
1108	93240 76 717 32820 0.0070000972 0.4070015836 3 0 0 0 0
1109	93316 76 717 32820 0.0070000972 0.4070015836 3 0 0 0 0
1110	93392 76 717 32820 0.0070000972 0.4070015836 3 0 0 0 0
1111	93468 79 717 32820 0.0070000972 0.4070015836 3 16 16 48 768
1113	93547 28 189 189 0.0000003096 0.0000003096 1 65535 65535 65535 4294836225
1115	93575 2495 720 16408 0.0070000972 0.2070015836 72 9.72e-08 1.1052e-06 7.21824e-05 7.844462208e-11
1116	96070 13 157 157 0 0 1 0 0 0 0
1195	96083 27 202 202 0.000000458 0.000000458 1 65535 65535 65535 4294836225
1196	96110 26 202 202 0.000000458 0.000000458 1 8940 8940 8940 79923600
1197	96136 28 202 202 0.000000458 0.000000458 1 0.3725 0.3725 0.3725 0.13875625
1193	96164 23 202 202 0.000000458 0.000000458 1 3 3 3 9
1200	96187 23 202 202 0.000000458 0.000000458 1 1 1 1 1
1208	96210 77 3975 36801 0.0570001912 0.4570016776 3 0 0 0 0
1209	96287 77 3975 36801 0.0570001912 0.4570016776 3 0 0 0 0
1210	96364 77 3975 36801 0.0570001912 0.4570016776 3 0 0 0 0
1212	96441 24 174 174 0.0000001228 0.0000001228 1 0 0 0 0
1168	96465 27 202 202 0.000000458 0.000000458 1 65535 65535 65535 4294836225
1169	96492 26 202 202 0.000000458 0.000000458 1 8940 8940 8940 79923600
1170	96518 28 202 202 0.000000458 0.000000458 1 0.3725 0.3725 0.3725 0.13875625
1166	96546 23 202 202 0.000000458 0.000000458 1 3 3 3 9
1173	96569 23 202 202 0.000000458 0.000000458 1 1 1 1 1
1181	96592 77 3975 36801 0.0570001912 0.4570016776 3 0 0 0 0
1182	96669 77 3975 36801 0.0570001912 0.4570016776 3 0 0 0 0
1183	96746 77 3975 36801 0.0570001912 0.4570016776 3 0 0 0 0
1185	96823 24 174 174 0.0000001228 0.0000001228 1 0 0 0 0
1222	96847 57 202 96092 0.000000458 1.2570004784 2 65535 65535 131070 8589672450
1223	96904 55 202 96092 0.000000458 1.2570004784 2 8940 8940 17880 159847200
1224	96959 58 202 96092 0.000000458 1.2570004784 2 0.3725 23.84 24.2125 568.48435625
1220	97017 124 202 36801 0.000000458 0.4570016776 5 1 3 7 13
1221	97141 139 281 36801 0.0000006744 0.4570016776 4 1.912e-07 0.2000011992 0.400001894 0.080000594561604
1225	97280 2073 3893 20587 0.057 0.2570004784 72 2000 2071 146556 298345836
1229	99353 48 299 313 0.0000007624 0.0000008064 2 1 2 3 5
1228	99401 48 299 313 0.0000007624 0.0000008064 2 1 2 3 5
1230	99449 48 281 291 0.0000006744 0.0000007184 2 1 2 3 5
1231	99497 3881 3893 36801 0.057 0.4570016776 144 0 128 8292 700064
1232	103378 3881 3893 36801 0.057 0.4570016776 144 0 128 8292 700064
1235	107259 77 3975 36801 0.0570001912 0.4570016776 3 0 0 0 0
1236	107336 77 3975 36801 0.0570001912 0.4570016776 3 0 0 0 0
1237	107413 77 3975 36801 0.0570001912 0.4570016776 3 0 0 0 0
1238	107490 77 3975 36801 0.0570001912 0.4570016776 3 0 0 0 0
1239	107567 24 174 174 0.0000001228 0.0000001228 1 0 0 0 0
1242	107591 86 3975 36801 0.0570001912 0.4570016776 3 2000 2071 6078 12317090
1244	107677 77 3975 36801 0.0570001912 0.4570016776 3 0 0 0 0
1245	107754 77 3975 36801 0.0570001912 0.4570016776 3 0 0 0 0
1460	107831 77 3975 36801 0.0570001912 0.4570016776 3 0 0 0 0
1461	107908 3262 3893 20587 0.057 0.2570004784 144 0 64 4146 175016
1030	111170 3881 3893 36801 0.057 0.4570016776 144 0 128 8292 700064
1029	115051 3881 3893 36801 0.057 0.4570016776 144 0 128 8292 700064
1031	118932 77 3975 36801 0.0570001912 0.4570016776 3 0 0 0 0
1032	119009 77 3975 36801 0.0570001912 0.4570016776 3 0 0 0 0
1041	119086 89 3975 36801 0.0570001912 0.4570016776 3 65533 65535 196603 12884246539
1042	119175 117 174 36801 0.0000001228 0.4570016776 4 65533 65535 262138 17179082764
1045	119292 13 153 153 0 0 1 0 0 0 0
8	119305 8 0 0 0 0 1 0 0 0 0
9	119313 8 0 0 0 0 1 0 0 0 0
24	119321 9 0 0 0 0 1 0 0 0 0
25	119330 9 0 0 0 0 1 0 0 0 0
35	119339 9 0 0 0 0 1 0 0 0 0
36	119348 9 0 0 0 0 1 0 0 0 0
56	119357 9 0 0 0 0 1 0 0 0 0
57	119366 9 0 0 0 0 1 0 0 0 0
67	119375 9 0 0 0 0 1 0 0 0 0
68	119384 9 0 0 0 0 1 0 0 0 0
78	119393 9 0 0 0 0 1 0 0 0 0
79	119402 9 0 0 0 0 1 0 0 0 0
96	119411 1214535 418 834303 0.002 10 68660 0 0 0 0
98	1333946 425618 1302 834295 0.018 10 24059 0 0 0 0
100	1759564 319045 2072 834288 0.031 10 14495 1 14495 105059760 1015262500720
101	2078609 93448 1986 834295 0.03 10 4382 1 4382 9603153 28057212015
106	2172057 782772 1986 834303 0.03 10 37714 241 670 17755477 9233175053
108	2954829 285372 2216 834303 0.033 10 14463 1 11 145793 1471495
109	3240201 85414 2169 834215 0.032 9.999 4374 3 14 47997 546003
111	3325615 905181 1302 834303 0.018 10 40311 1 40311 812508516 21835624695156
112	4230796 835665 1302 834303 0.018 10 40311 106 694 19588911 10257823021
113	5066461 755043 1302 834303 0.018 10 40311 0 0 0 0
115	5821504 38 747267 747811 9.088 9.093 2 2 2 4 8
120	5821542 10 0 0 0 0 1 0 0 0 0
121	5821552 10 0 0 0 0 1 0 0 0 0
128	5821562 421 164 36796 0 0.4570015836 18 36 1312 2464 1827680
130	5821983 438 164 36796 0 0.4570015836 18 0 8.8e-08 3.088e-07 1.946112e-14
131	5822421 280 0 283 0 0.0000007124 13 0 2 10 14
132	5822701 828 0 36798 0 0.4570016276 37 0 1 18 18
133	5823529 423 166 36797 0 0.4570015836 18 43 1319 2590 1863058
134	5823952 442 171 32825 0.0000001228 0.4070016776 18 43 1319 2590 1863058
137	5824394 423 166 36797 0 0.4570015836 18 36 1312 2464 1827680
138	5824817 442 171 32825 0.0000001228 0.4070016776 18 36 1312 2464 1827680
141	5825259 1792 3968 20786 0.0570000972 0.2570015836 72 2 2 144 288
154	5827051 305027 4348 834279 0.062 10 16310 0 0 0 0
156	6132078 97205 4603 834279 0.065 10 5173 0 0 0 0
169	6229283 45573 4603 834279 0.065 10 2128 1 2128 2265256 3214398264
170	6274856 44552 4603 834279 0.065 10 2128 139 405 533561 164497751
171	6319408 40296 4603 834279 0.065 10 2128 0 0 0 0
173	6359704 17595 229627 834121 3.063 9.998 926 2 10 4899 29159
178	6377299 10 0 0 0 0 1 0 0 0 0
179	6377309 10 0 0 0 0 1 0 0 0 0
186	6377319 422 165 32822 0 0.4070015836 18 36 1312 2464 1827680
188	6377741 439 165 32822 0 0.4070015836 18 0 8.8e-08 3.088e-07 1.946112e-14
189	6378180 280 0 282 0 0.0000007124 13 0 2 10 14
190	6378460 830 0 32824 0 0.4070016276 37 0 1 18 18
191	6379290 424 167 32823 0 0.4070015836 18 43 1319 2590 1863058
192	6379714 441 170 36799 0.0000001228 0.4570016776 18 43 1319 2590 1863058
195	6380155 424 167 32823 0 0.4070015836 18 36 1312 2464 1827680
196	6380579 441 170 36799 0.0000001228 0.4570016776 18 36 1312 2464 1827680
199	6381020 1784 722 16535 0.0070000972 0.2070015836 72 2 2 144 288
205	6382804 85 6520 747303 0.088784986169 9.088784986169 3 44 44 132 5808
208	6382889 85 6520 747303 0.088784986169 9.088784986169 3 45 45 135 6075
209	6382974 85 6523 747306 0.088784986169 9.088784986169 3 45 45 135 6075
210	6383059 45002 488635 834276 6.005 10 2392 0 0 0 0
212	6428061 82426 6527 834276 0.089 10 4375 0 0 0 0
218	6510487 42222 6527 834148 0.089 9.999 1981 1 1981 1963171 2593348891
219	6552709 38 747309 747840 9.089 9.094 2 1 2 3 5
231	6552747 10 0 0 0 0 1 1 1 1 1
237	6552757 85 4561 744940 0.064770889489 9.064770889489 3 44 44 132 5808
240	6552842 85 4561 744940 0.064770889489 9.064770889489 3 45 45 135 6075
241	6552927 4130 4564 744943 0.064770889489 9.064770889489 221 0 45 233 8917
242	6557057 97592 2797 488590 0.042 6.004 5204 0 0 0 0
243	6654649 4041 4928 289911 0.069 3.709 218 0 0 0 0
244	6658690 96746 2797 834238 0.042 10 5165 0 0 0 0
248	6755436 153 2991 4692 0.044 0.066 9 1 9 45 285
250	6755589 3735 744950 834238 9.065 10 188 1 188 17766 2232594
263	6759324 10 0 0 0 0 1 1 1 1 1
269	6759334 85 2174 741957 0.032649362497 9.032649362497 3 44 44 132 5808
272	6759419 85 2174 741957 0.032649362497 9.032649362497 3 45 45 135 6075
273	6759504 580 2177 746111 0.032649362497 9.077 30 7 45 324 7398
274	6760084 38919 2306 834193 0.035 9.999 2051 0 0 0 0
275	6799003 495 2447 746107 0.037 9.077 27 0 0 0 0
276	6799498 38436 2182 834193 0.033 9.999 2024 0 0 0 0
295	6837934 10 0 0 0 0 1 1 1 1 1
301	6837944 85 2390 742282 0.036651693161 9.036651693161 3 44 44 132 5808
304	6838029 85 2390 742282 0.036651693161 9.036651693161 3 45 45 135 6075
305	6838114 143 2393 742697 0.036651693161 9.041 6 45 47 276 12702
306	6838257 141 2627 742642 0.039 9.04 8 0 0 0 0
307	6838398 55 2692 742693 0.041 9.041 3 0 0 0 0
308	6838453 89 2452 742320 0.037 9.037 5 0 0 0 0
327	6838542 10 0 0 0 0 1 1 1 1 1
333	6838552 85 4030 744293 0.057963030662 9.057963030662 3 44 44 132 5808
336	6838637 85 4030 744293 0.057963030662 9.057963030662 3 45 45 135 6075
337	6838722 915 4033 753621 0.057963030662 9.152 48 5 45 360 7200
338	6839637 69764 3465 834206 0.051 9.999 3677 0 0 0 0
339	6909401 830 5962 753617 0.082 9.152 45 0 0 0 0
340	6910231 68723 3465 834206 0.051 9.999 3619 0 0 0 0
344	6978954 211 744629 746373 9.061 9.079 11 1 11 66 506
345	6979165 34 3576 4083 0.053 0.058 2 1 2 3 5
359	6979199 10 0 0 0 0 1 1 1 1 1
365	6979209 82 7199 748103 0.09658703896 9.09658703896 3 44 44 132 5808
368	6979291 82 7199 748103 0.09658703896 9.09658703896 3 45 45 135 6075
369	6979373 3674 7202 833833 0.09658703896 9.996 192 0 45 227 6839
370	6983047 7148 7515 834268 0.099 10 382 0 0 0 0
371	6990195 3591 233269 833829 3.101 9.996 189 0 0 0 0
372	6993786 3646 7240 833928 0.097 9.997 192 0 0 0 0
391	6997432 163 0 8003 0 0.105 10 1 2 19 37
397	6997595 82 1797 741401 0.02660460389 9.02660460389 3 44 44 132 5808
400	6997677 82 1797 741401 0.02660460389 9.02660460389 3 45 45 135 6075
401	6997759 82 1800 741404 0.02660460389 9.02660460389 3 45 45 135 6075
404	6997841 37627 1809 833930 0.027 9.997 1995 0 0 0 0
411	7035468 42505 1809 833930 0.027 9.997 1995 1 1995 1991010 2648706970
423	7077973 10 0 0 0 0 1 1 1 1 1
429	7077983 85 3759 744064 0.055890854003 9.055890854003 3 44 44 132 5808
432	7078068 85 3759 744064 0.055890854003 9.055890854003 3 45 45 135 6075
433	7078153 85 3762 744067 0.055890854003 9.055890854003 3 45 45 135 6075
436	7078238 37525 3772 833835 0.056 9.996 1989 0 0 0 0
442	7115763 24807 3772 488270 0.056 6.001 1190 1 1190 708645 562427915
443	7140570 16671 488697 833835 6.006 9.996 799 1 799 319600 170346800
455	7157241 10 0 0 0 0 1 1 1 1 1
461	7157251 85 2683 742682 0.040940929686 9.040940929686 3 44 44 132 5808
464	7157336 85 2683 742682 0.040940929686 9.040940929686 3 45 45 135 6075
465	7157421 85 2686 742685 0.040940929686 9.040940929686 3 45 45 135 6075
468	7157506 37576 2701 833837 0.041 9.996 1992 0 0 0 0
474	7195082 42445 2701 833837 0.041 9.996 1992 1 1992 1985028 2636778860
487	7237527 10 0 0 0 0 1 1 1 1 1
493	7237537 85 5745 746383 0.079275280847 9.079275280847 3 44 44 132 5808
496	7237622 85 5745 746383 0.079275280847 9.079275280847 3 45 45 135 6075
497	7237707 85 5748 746386 0.079275280847 9.079275280847 3 45 45 135 6075
500	7237792 36346 5762 834247 0.08 10 1985 0 0 0 0
506	7274138 41194 5762 834247 0.08 10 1985 1 1985 1971105 2609085985
519	7315332 10 0 0 0 0 1 1 1 1 1
525	7315342 85 6017 746686 0.082257983647 9.082257983647 3 44 44 132 5808
528	7315427 85 6017 746686 0.082257983647 9.082257983647 3 45 45 135 6075
529	7315512 5184 6020 747765 0.082257983647 9.093 276 0 47 290 9772
530	7320696 174276 6224 834300 0.085 10 9299 0 0 0 0
531	7494972 5092 6410 747761 0.087 9.093 273 0 0 0 0
532	7500064 169280 6034 834300 0.083 10 9023 0 0 0 0
551	7669344 10 0 0 0 0 1 1 1 1 1
557	7669354 82 3220 743412 0.04821039218 9.04821039218 3 44 44 132 5808
560	7669436 82 3220 743412 0.04821039218 9.04821039218 3 45 45 135 6075
561	7669518 82 3223 743415 0.04821039218 9.04821039218 3 45 45 135 6075
564	7669600 26463 3287 834160 0.049 9.999 1393 0 0 0 0
571	7696063 29535 3287 834160 0.049 9.999 1393 1 1393 970921 901985609
583	7725598 163 0 8004 0 0.105 10 1 2 19 37
589	7725761 85 1880 741556 0.028371024961 9.028371024961 3 44 44 132 5808
592	7725846 85 1880 741556 0.028371024961 9.028371024961 3 45 45 135 6075
593	7725931 85 1883 741559 0.028371024961 9.028371024961 3 45 45 135 6075
596	7726016 37628 1899 834162 0.029 9.999 1995 0 0 0 0
602	7763644 24906 1899 488077 0.029 5.999 1195 1 1195 714610 569544170
603	7788550 16692 488549 834162 6.004 9.999 800 1 800 320400 170986800
615	7805242 10 0 0 0 0 1 1 1 1 1
621	7805252 85 1213 740493 0.016038050947 9.016038050947 3 44 44 132 5808
624	7805337 85 1213 740493 0.016038050947 9.016038050947 3 45 45 135 6075
625	7805422 143 1216 740897 0.016038050947 9.021 6 45 47 276 12702
626	7805565 259 1384 748370 0.019 9.098 14 0 0 0 0
627	7805824 55 1482 740893 0.021 9.021 3 0 0 0 0
628	7805879 207 1232 748370 0.017 9.098 11 0 0 0 0
647	7806086 10 0 0 0 0 1 1 1 1 1
653	7806096 85 1836 741476 0.027878343419 9.027878343419 3 44 44 132 5808
656	7806181 85 1836 741476 0.027878343419 9.027878343419 3 45 45 135 6075
657	7806266 14681 1839 778380 0.027878343419 9.407 771 0 45 249 7341
658	7820947 81512 5241 834200 0.073 9.999 4313 0 0 0 0
659	7902459 14592 226914 778376 3.032 9.407 768 0 0 0 0
660	7917051 67453 1856 834200 0.028 9.999 3551 0 0 0 0
667	7984504 102 1856 3548 0.028 0.053 6 1 6 21 91
679	7984606 163 0 8005 0 0.105 10 1 2 19 37
685	7984769 85 2265 742109 0.034516076937 9.034516076937 3 44 44 132 5808
688	7984854 85 2265 742109 0.034516076937 9.034516076937 3 45 45 135 6075
689	7984939 85 2268 742112 0.034516076937 9.034516076937 3 45 45 135 6075
690	7985024 49190 1871 834110 0.028 9.998 2618 0 0 0 0
692	8034214 85685 1871 834254 0.028 10 4612 0 0 0 0
698	8119899 41370 2287 834254 0.035 10 1994 1 1994 1989015 2644726945
711	8161269 10 0 0 0 0 1 1 1 1 1
717	8161279 85 4500 744859 0.063891002787 9.063891002787 3 44 44 132 5808
720	8161364 85 4500 744859 0.063891002787 9.063891002787 3 45 45 135 6075
721	8161449 4571 4503 834017 0.063891002787 9.998 239 0 45 200 7334
722	8166020 51792 4690 834196 0.066 9.999 2726 0 0 0 0
723	8217812 4484 230025 834013 3.068 9.998 236 0 0 0 0
724	8222296 47327 4524 834196 0.064 9.999 2491 0 0 0 0
743	8269623 163 0 8006 0 0.105 10 1 2 19 37
749	8269786 85 6512 747296 0.088577514598 9.088577514598 3 44 44 132 5808
752	8269871 85 6512 747296 0.088577514598 9.088577514598 3 45 45 135 6075
753	8269956 85 6515 747299 0.088577514598 9.088577514598 3 45 45 135 6075
756	8270041 37424 6550 834169 0.089 9.999 1983 0 0 0 0
762	8307465 42266 6550 834169 0.089 9.999 1983 1 1983 1967136 2601209504
775	8349731 10 0 0 0 0 1 1 1 1 1
781	8349741 85 1505 740945 0.021540784608 9.021540784608 3 44 44 132 5808
784	8349826 85 1505 740945 0.021540784608 9.021540784608 3 45 45 135 6075
785	8349911 642 1508 740948 0.021540784608 9.021540784608 34 0 45 285 6825
786	8350553 202082 1627 488748 0.024 6.006 10792 0 0 0 0
787	8552635 557 1728 233288 0.026 3.101 31 0 0 0 0
788	8553192 205121 1529 833943 0.022 9.997 10949 0 0 0 0
792	8758313 91 2803 228022 0.042 3.044 5 1 5 15 55
793	8758404 53 2734 227732 0.041 3.041 3 1 3 6 14
795	8758457 4008 740970 833943 9.022 9.997 196 1 196 19306 2529086
807	8762465 10 0 0 0 0 1 1 1 1 1
813	8762475 85 7191 748096 0.096236986774 9.096236986774 3 44 44 132 5808
816	8762560 85 7191 748096 0.096236986774 9.096236986774 3 45 45 135 6075
817	8762645 85 7194 748099 0.096236986774 9.096236986774 3 45 45 135 6075
820	8762730 26256 7261 833945 0.097 9.997 1382 0 0 0 0
827	8788986 29295 7261 833945 0.097 9.997 1382 1 1382 955653 880793515
839	8818281 163 0 8007 0 0.105 10 1 2 19 37
845	8818444 85 5090 745597 0.071485376221 9.071485376221 3 44 44 132 5808
848	8818529 85 5090 745597 0.071485376221 9.071485376221 3 45 45 135 6075
849	8818614 85 5093 745600 0.071485376221 9.071485376221 3 45 45 135 6075
850	8818699 26332 5645 834119 0.078 9.998 1386 0 0 0 0
852	8845031 52683 5148 834119 0.072 9.998 2773 0 0 0 0
858	8897714 29405 5148 833947 0.072 9.997 1387 1 1387 962578 890384650
871	8927119 163 0 8008 0 0.105 10 1 2 19 37
877	8927282 85 5520 746099 0.076776781168 9.076776781168 3 44 44 132 5808
880	8927367 85 5520 746099 0.076776781168 9.076776781168 3 45 45 135 6075
881	8927452 85 5523 746102 0.076776781168 9.076776781168 3 45 45 135 6075
884	8927537 26332 5554 833949 0.077 9.997 1386 0 0 0 0
891	8953869 29383 5554 833949 0.077 9.997 1386 1 1386 961191 888460881
903	8983252 163 0 8009 0 0.105 10 1 2 19 37
909	8983415 82 7430 748377 0.09845927062 9.09845927062 3 44 44 132 5808
912	8983497 82 7430 748377 0.09845927062 9.09845927062 3 45 45 135 6075
913	8983579 37454 7433 834027 0.09845927062 9.998 1983 0 45 135 6075
914	9021033 223344 5941 834282 0.081 10 11893 0 0 0 0
915	9244377 37372 7836 834023 0.103 9.998 1980 0 0 0 0
916	9281749 185888 5941 834282 0.081 10 9908 0 0 0 0
920	9467637 102 6068 7418 0.083 0.098 6 1 6 21 91
935	9467739 10 0 0 0 0 1 1 1 1 1
941	9467749 85 3139 743308 0.047449069971 9.047449069971 3 44 44 132 5808
944	9467834 85 3139 743308 0.047449069971 9.047449069971 3 45 45 135 6075
945	9467919 85 3142 743311 0.047449069971 9.047449069971 3 45 45 135 6075
946	9468004 33 3408 3739 0.05 0.055 2 0 0 0 0
948	9468037 37592 3195 834028 0.048 9.998 1993 0 0 0 0
954	9505629 42425 3195 834028 0.048 9.998 1991 1 1991 1983036 2632810796
967	9548054 10 0 0 0 0 1 1 1 1 1
973	9548064 85 4022 744286 0.057842512242 9.057842512242 3 44 44 132 5808
976	9548149 85 4022 744286 0.057842512242 9.057842512242 3 45 45 135 6075
977	9548234 85 4025 744289 0.057842512242 9.057842512242 3 45 45 135 6075
978	9548319 88891 229342 834273 3.06 10 4733 0 0 0 0
980	9637210 80647 4063 834273 0.058 10 4272 0 0 0 0
986	9717857 9634 4063 834030 0.058 9.998 464 1 464 107880 33406840
999	9727491 163 0 8010 0 0.105 10 1 2 19 37
1479	9727654 94 1210 740490 0.016038050947 9.016038050947 3 7504 7504 22512 168930048
1480	9727748 94 1210 740490 0.016038050947 9.016038050947 3 7504 7504 22512 168930048
1482	9727842 85 1210 740490 0.016038050947 9.016038050947 3 0 0 0 0
1493	9727927 85 1210 740490 0.016038050947 9.016038050947 3 0 0 0 0
1503	9728012 94 1502 740942 0.021540784608 9.021540784608 3 7504 7504 22512 168930048
1504	9728106 94 1502 740942 0.021540784608 9.021540784608 3 7504 7504 22512 168930048
1506	9728200 85 1502 740942 0.021540784608 9.021540784608 3 0 0 0 0
1517	9728285 85 1502 740942 0.021540784608 9.021540784608 3 0 0 0 0
1527	9728370 91 1794 741398 0.02660460389 9.02660460389 3 7504 7504 22512 168930048
1528	9728461 91 1794 741398 0.02660460389 9.02660460389 3 7504 7504 22512 168930048
1530	9728552 82 1794 741398 0.02660460389 9.02660460389 3 0 0 0 0
1541	9728634 82 1794 741398 0.02660460389 9.02660460389 3 0 0 0 0
1551	9728716 94 1833 741473 0.027878343419 9.027878343419 3 7504 7504 22512 168930048
1552	9728810 94 1833 741473 0.027878343419 9.027878343419 3 7504 7504 22512 168930048
1554	9728904 85 1833 741473 0.027878343419 9.027878343419 3 0 0 0 0
1565	9728989 85 1833 741473 0.027878343419 9.027878343419 3 0 0 0 0
1575	9729074 94 1877 741553 0.028371024961 9.028371024961 3 7504 7504 22512 168930048
1576	9729168 94 1877 741553 0.028371024961 9.028371024961 3 7504 7504 22512 168930048
1578	9729262 85 1877 741553 0.028371024961 9.028371024961 3 0 0 0 0
1589	9729347 85 1877 741553 0.028371024961 9.028371024961 3 0 0 0 0
1599	9729432 94 2171 741954 0.032649362497 9.032649362497 3 7504 7504 22512 168930048
1600	9729526 94 2171 741954 0.032649362497 9.032649362497 3 7504 7504 22512 168930048
1602	9729620 85 2171 741954 0.032649362497 9.032649362497 3 0 0 0 0
1613	9729705 85 2171 741954 0.032649362497 9.032649362497 3 0 0 0 0
1623	9729790 94 2262 742106 0.034516076937 9.034516076937 3 7504 7504 22512 168930048
1624	9729884 94 2262 742106 0.034516076937 9.034516076937 3 7504 7504 22512 168930048
1626	9729978 85 2262 742106 0.034516076937 9.034516076937 3 0 0 0 0
1637	9730063 85 2262 742106 0.034516076937 9.034516076937 3 0 0 0 0
1647	9730148 94 2387 742279 0.036651693161 9.036651693161 3 7504 7504 22512 168930048
1648	9730242 94 2387 742279 0.036651693161 9.036651693161 3 7504 7504 22512 168930048
1650	9730336 85 2387 742279 0.036651693161 9.036651693161 3 0 0 0 0
1661	9730421 85 2387 742279 0.036651693161 9.036651693161 3 0 0 0 0
1671	9730506 94 2680 742679 0.040940929686 9.040940929686 3 7504 7504 22512 168930048
1672	9730600 94 2680 742679 0.040940929686 9.040940929686 3 7504 7504 22512 168930048
1674	9730694 85 2680 742679 0.040940929686 9.040940929686 3 0 0 0 0
1685	9730779 85 2680 742679 0.040940929686 9.040940929686 3 0 0 0 0
1695	9730864 94 3136 743305 0.047449069971 9.047449069971 3 7504 7504 22512 168930048
1696	9730958 94 3136 743305 0.047449069971 9.047449069971 3 7504 7504 22512 168930048
1698	9731052 85 3136 743305 0.047449069971 9.047449069971 3 0 0 0 0
1709	9731137 85 3136 743305 0.047449069971 9.047449069971 3 0 0 0 0
1719	9731222 91 3217 743409 0.04821039218 9.04821039218 3 7504 7504 22512 168930048
1720	9731313 91 3217 743409 0.04821039218 9.04821039218 3 7504 7504 22512 168930048
1722	9731404 82 3217 743409 0.04821039218 9.04821039218 3 0 0 0 0
1733	9731486 82 3217 743409 0.04821039218 9.04821039218 3 0 0 0 0
1743	9731568 94 3756 744061 0.055890854003 9.055890854003 3 7504 7504 22512 168930048
1744	9731662 94 3756 744061 0.055890854003 9.055890854003 3 7504 7504 22512 168930048
1746	9731756 85 3756 744061 0.055890854003 9.055890854003 3 0 0 0 0
1757	9731841 85 3756 744061 0.055890854003 9.055890854003 3 0 0 0 0
1767	9731926 94 4019 744283 0.057842512242 9.057842512242 3 7504 7504 22512 168930048
1768	9732020 94 4019 744283 0.057842512242 9.057842512242 3 7504 7504 22512 168930048
1770	9732114 85 4019 744283 0.057842512242 9.057842512242 3 0 0 0 0
1781	9732199 85 4019 744283 0.057842512242 9.057842512242 3 0 0 0 0
1791	9732284 94 4027 744290 0.057963030662 9.057963030662 3 7504 7504 22512 168930048
1792	9732378 94 4027 744290 0.057963030662 9.057963030662 3 7504 7504 22512 168930048
1794	9732472 85 4027 744290 0.057963030662 9.057963030662 3 0 0 0 0
1805	9732557 85 4027 744290 0.057963030662 9.057963030662 3 0 0 0 0
1815	9732642 94 4497 744856 0.063891002787 9.063891002787 3 7504 7504 22512 168930048
1816	9732736 94 4497 744856 0.063891002787 9.063891002787 3 7504 7504 22512 168930048
1818	9732830 85 4497 744856 0.063891002787 9.063891002787 3 0 0 0 0
1829	9732915 85 4497 744856 0.063891002787 9.063891002787 3 0 0 0 0
1839	9733000 94 4558 744937 0.064770889489 9.064770889489 3 7504 7504 22512 168930048
1840	9733094 94 4558 744937 0.064770889489 9.064770889489 3 7504 7504 22512 168930048
1842	9733188 85 4558 744937 0.064770889489 9.064770889489 3 0 0 0 0
1853	9733273 85 4558 744937 0.064770889489 9.064770889489 3 0 0 0 0
1863	9733358 94 5087 745594 0.071485376221 9.071485376221 3 7504 7504 22512 168930048
1864	9733452 94 5087 745594 0.071485376221 9.071485376221 3 7504 7504 22512 168930048
1866	9733546 85 5087 745594 0.071485376221 9.071485376221 3 0 0 0 0
1877	9733631 85 5087 745594 0.071485376221 9.071485376221 3 0 0 0 0
1887	9733716 94 5517 746096 0.076776781168 9.076776781168 3 7504 7504 22512 168930048
1888	9733810 94 5517 746096 0.076776781168 9.076776781168 3 7504 7504 22512 168930048
1890	9733904 85 5517 746096 0.076776781168 9.076776781168 3 0 0 0 0
1901	9733989 85 5517 746096 0.076776781168 9.076776781168 3 0 0 0 0
1911	9734074 94 5742 746380 0.079275280847 9.079275280847 3 7504 7504 22512 168930048
1912	9734168 94 5742 746380 0.079275280847 9.079275280847 3 7504 7504 22512 168930048
1914	9734262 85 5742 746380 0.079275280847 9.079275280847 3 0 0 0 0
1925	9734347 85 5742 746380 0.079275280847 9.079275280847 3 0 0 0 0
1935	9734432 94 6014 746683 0.082257983647 9.082257983647 3 7504 7504 22512 168930048
1936	9734526 94 6014 746683 0.082257983647 9.082257983647 3 7504 7504 22512 168930048
1938	9734620 85 6014 746683 0.082257983647 9.082257983647 3 0 0 0 0
1949	9734705 85 6014 746683 0.082257983647 9.082257983647 3 0 0 0 0
1959	9734790 94 6509 747293 0.088577514598 9.088577514598 3 7504 7504 22512 168930048
1960	9734884 94 6509 747293 0.088577514598 9.088577514598 3 7504 7504 22512 168930048
1962	9734978 85 6509 747293 0.088577514598 9.088577514598 3 0 0 0 0
1973	9735063 85 6509 747293 0.088577514598 9.088577514598 3 0 0 0 0
1983	9735148 94 6517 747300 0.088784986169 9.088784986169 3 7504 7504 22512 168930048
1984	9735242 94 6517 747300 0.088784986169 9.088784986169 3 7504 7504 22512 168930048
1986	9735336 85 6517 747300 0.088784986169 9.088784986169 3 0 0 0 0
1997	9735421 85 6517 747300 0.088784986169 9.088784986169 3 0 0 0 0
2007	9735506 94 7188 748093 0.096236986774 9.096236986774 3 7504 7504 22512 168930048
2008	9735600 94 7188 748093 0.096236986774 9.096236986774 3 7504 7504 22512 168930048
2010	9735694 85 7188 748093 0.096236986774 9.096236986774 3 0 0 0 0
2021	9735779 85 7188 748093 0.096236986774 9.096236986774 3 0 0 0 0
2031	9735864 91 7196 748100 0.09658703896 9.09658703896 3 7504 7504 22512 168930048
2032	9735955 91 7196 748100 0.09658703896 9.09658703896 3 7504 7504 22512 168930048
2034	9736046 82 7196 748100 0.09658703896 9.09658703896 3 0 0 0 0
2045	9736128 82 7196 748100 0.09658703896 9.09658703896 3 0 0 0 0
2055	9736210 91 7427 748374 0.09845927062 9.09845927062 3 7504 7504 22512 168930048
2056	9736301 91 7427 748374 0.09845927062 9.09845927062 3 7504 7504 22512 168930048
2058	9736392 82 7427 748374 0.09845927062 9.09845927062 3 0 0 0 0
2069	9736474 82 7427 748374 0.09845927062 9.09845927062 3 0 0 0 0
