file 8258709 1580763354                                         
version 2
run CAIN-36-20200203-17:55:04-31505
attr configname CAIN
attr datetime 20200203-17:55:04
attr experiment CAIN
attr inifile omnetpp.ini
attr iterationvars "$0=170, $mob=\"./movements/RPGM-0.0.movements\""
attr iterationvars2 "$0=170, $mob=\"./movements/RPGM-0.0.movements\", $repetition=6"
attr measurement "$0=170, $mob=\"./movements/RPGM-0.0.movements\""
attr mob "\"./movements/RPGM-0.0.movements\""
attr network lte.simulations.networks.CAIN
attr processid 31505
attr repetition 6
attr replication #6
attr resultdir results
attr runnumber 36
attr seedset 6
param **.**.amcMode "\"AUTO\""
param **.amcMode "\"D2D\""
param **.cainNetwork true
param **.channelControl.alpha 1.0
param **.channelControl.carrierFrequency 2100e+6Hz
param **.channelControl.pMax 10W
param **.d2dCqi 7
param **.deployer.numRbDl 50
param **.deployer.numRbUl 50
param **.distThresh "${170..190 step 10}"
param **.fbDelay 1
param **.feedbackComputation "xmldoc(\"config_channel.xml\")"
param **.mobility.constraintAreaMaxX 1000m
param **.mobility.constraintAreaMaxY 1000m
param **.mobility.constraintAreaMaxZ 0m
param **.mobility.constraintAreaMinX 0m
param **.mobility.constraintAreaMinY 0m
param **.mobility.constraintAreaMinZ 0m
param **.nic.phy.channelModel "xmldoc(\"config_channel.xml\")"
param **.numBands 50
param **.pwrThresh -10
param **.qtdThresh 3
param **.rbAllocationType "\"localized\""
param **.routingRecorder.enabled false
param **.tcpApp[*].tClose -1s
param **.ueD2DTx[*].mobility.changeAngleBy "normal(0deg, 30deg)"
param **.ueD2DTx[*].mobility.changeInterval "normal(5s, 0.1s)"
param **.ueD2DTx[*].mobility.nodeId -1
param **.ueD2DTx[*].mobility.speed "normal(2mps, 0.01mps)"
param **.ueD2DTx[*].mobility.traceFile "${mob=\"./movements/RWP-0.0.movements\",\"./movements/RWP-0.5.movements\",\"./movements/RPGM-0.0.movements\",\"./movements/RPGM-0.5.movements\",\"./movements/RWPRPGM-0.0.movements\",\"./movements/RWPRPGM-0.5.movements\"}"
param **.ueD2DTx[*].mobilityType "\"BonnMotionMobility\""
param **.usePreconfiguredTxParams false
param *.eNodeB.d2dCapable false
param *.eNodeB.mobility.initFromDisplayString false
param *.eNodeB.mobility.initialX 300m
param *.eNodeB.mobility.initialY 300m
param *.eNodeB.nic.phy.enableD2DCqiReporting true
param *.eNodeB.txPower 19952.62315mw
param *.numUeCell 0
param *.numUeD2DRx 1
param *.numUeD2DTx 1
param *.ue*.macCellId 1
param *.ue*.masterId 1
param *.ue*.mobility.initFromDisplayString false
param *.ue*[0].macCellId 1
param *.ue*[0].masterId 1
param *.ue*[0].mobility.initFromDisplayString false
param *.ueD2D*.numTcpApps 1
param *.ueD2D*[*].d2dCapable true
param *.ueD2D*[0].d2dCapable false
param *.ueD2D*[0].numTcpApps 1
param *.ueD2DRx[0].mobility.initialX 310m
param *.ueD2DRx[0].mobility.initialY 350m
param *.ueD2DRx[0].tcpApp[*].localPort 1000
param *.ueD2DRx[0].tcpApp[*].typename "\"TCPSinkApp\""
param *.ueD2DTx*.tcpApp[*].connectAddress "\"ueD2DTx[0]\""
param *.ueD2DTx*.tcpApp[*].localAddress "\"ueD2DTx\""
param *.ueD2DTx*.tcpApp[*].localPort 1000
param *.ueD2DTx*.tcpApp[*].sendBytes 1GiB
param *.ueD2DTx*.tcpApp[*].typename "\"TCPSessionApp\""
param *.ueD2DTx*.tcpApp[0].active true
param *.ueD2DTx*.tcpApp[0].connectPort 1000
param *.ueD2DTx*.tcpApp[0].tOpen uniform(0.010s,0.1s)
param *.ueD2DTx*.tcpApp[0].tSend uniform(0.15s,0.5s)
param *.ueD2DTx[0].mobility.initialX 290m
param *.ueD2DTx[0].mobility.initialY 350m
param *.ueD2DTx[0].nic.d2dPeerAddresses "\"ueD2DTx[1]\""
param *.ueD2DTx[0].tcpApp[*].localPort 1000
param *.ueD2DTx[0].tcpApp[*].sendBytes 1GiB
param *.ueD2DTx[0].tcpApp[*].typename "\"TCPSessionApp\""
param *.ueD2DTx[0].tcpApp[0].active true
param *.ueD2DTx[0].tcpApp[0].connectAddress "\"ueD2DRx[0]\""
param *.ueD2DTx[0].tcpApp[0].connectPort 1000
param *.ueD2DTx[0].tcpApp[0].localAddress "\"ueD2DTx[0]\""
param *.ueD2DTx[0].tcpApp[0].tOpen uniform(0.010s,0.1s)
param *.ueD2DTx[0].tcpApp[0].tSend uniform(0.15s,0.5s)
param *.ueD2DTx[1].nic.d2dPeerAddresses "\"ueD2DTx[0]\""

vector 8  CAIN.server.ppp[0].queue  queueLength:vector  ETV
attr interpolationmode  sample-hold
attr title  "queue length, vector"
vector 9  CAIN.server.ppp[0].ppp  txState:vector  ETV
attr interpolationmode  sample-hold
attr title  "tx state, vector"
vector 24  CAIN.router.ppp[0].queue  queueLength:vector  ETV
attr interpolationmode  sample-hold
attr title  "queue length, vector"
vector 25  CAIN.router.ppp[0].ppp  txState:vector  ETV
attr interpolationmode  sample-hold
attr title  "tx state, vector"
vector 35  CAIN.router.ppp[1].queue  queueLength:vector  ETV
attr interpolationmode  sample-hold
attr title  "queue length, vector"
vector 36  CAIN.router.ppp[1].ppp  txState:vector  ETV
attr interpolationmode  sample-hold
attr title  "tx state, vector"
vector 56  CAIN.pgw.ppp[0].queue  queueLength:vector  ETV
attr interpolationmode  sample-hold
attr title  "queue length, vector"
vector 57  CAIN.pgw.ppp[0].ppp  txState:vector  ETV
attr interpolationmode  sample-hold
attr title  "tx state, vector"
vector 67  CAIN.pgw.pppInterface.queue  queueLength:vector  ETV
attr interpolationmode  sample-hold
attr title  "queue length, vector"
vector 68  CAIN.pgw.pppInterface.ppp  txState:vector  ETV
attr interpolationmode  sample-hold
attr title  "tx state, vector"
vector 104  CAIN.eNodeB.pppIf.queue  queueLength:vector  ETV
attr interpolationmode  sample-hold
attr title  "queue length, vector"
vector 105  CAIN.eNodeB.pppIf.ppp  txState:vector  ETV
attr interpolationmode  sample-hold
attr title  "tx state, vector"
vector 138  CAIN.ueD2DTx[0].nic.phy  servingCell:vector  ETV
attr source  servingCell
attr title  "ID of the serving eNodeB for the UE, vector"
attr unit  ""
vector 165  CAIN.ueD2DTx[1].nic.phy  servingCell:vector  ETV
attr source  servingCell
attr title  "ID of the serving eNodeB for the UE, vector"
attr unit  ""
vector 192  CAIN.ueD2DTx[2].nic.phy  servingCell:vector  ETV
attr source  servingCell
attr title  "ID of the serving eNodeB for the UE, vector"
attr unit  ""
vector 219  CAIN.ueD2DTx[3].nic.phy  servingCell:vector  ETV
attr source  servingCell
attr title  "ID of the serving eNodeB for the UE, vector"
attr unit  ""
vector 246  CAIN.ueD2DTx[4].nic.phy  servingCell:vector  ETV
attr source  servingCell
attr title  "ID of the serving eNodeB for the UE, vector"
attr unit  ""
vector 85  CAIN.eNodeB.nic.mac  receivedPacketFromLowerLayer:vector(packetBytes)  ETV
attr interpolationmode  none
attr source  receivedPacketFromLowerLayer
vector 264  CAIN.ueD2DTx[3].tcp  tcpRcvQueueBytes  ETV
vector 251  CAIN.ueD2DTx[3].tcp  "advertised window"  ETV
vector 250  CAIN.ueD2DTx[3].tcp  "receive window"  ETV
vector 253  CAIN.ueD2DTx[3].tcp  "sent ack"  ETV
vector 198  CAIN.ueD2DTx[3].nic.pdcpRrc  receivedPacketFromUpperLayer:vector(packetBytes)  ETV
attr interpolationmode  none
attr source  receivedPacketFromUpperLayer
vector 201  CAIN.ueD2DTx[3].nic.pdcpRrc  sentPacketToLowerLayer:vector(packetBytes)  ETV
attr interpolationmode  none
attr source  sentPacketToLowerLayer
vector 202  CAIN.ueD2DTx[3].nic.mac  receivedPacketFromUpperLayer:vector(packetBytes)  ETV
attr interpolationmode  none
attr source  receivedPacketFromUpperLayer
vector 205  CAIN.ueD2DTx[3].nic.mac  sentPacketToLowerLayer:vector(packetBytes)  ETV
attr interpolationmode  none
attr source  sentPacketToLowerLayer
vector 96  CAIN.eNodeB.nic.mac  racpkt:vector  ETV
attr interpolationmode  none
attr title  "eNB received racpkt message, vector"
vector 97  CAIN.eNodeB.nic.mac  racDistanceSignal:vector  ETV
attr interpolationmode  none
attr title  "Rac distance to enb, vector"
vector 87  CAIN.eNodeB.nic.mac  sentPacketToLowerLayer:vector(packetBytes)  ETV
attr interpolationmode  none
attr source  sentPacketToLowerLayer
vector 203  CAIN.ueD2DTx[3].nic.mac  receivedPacketFromLowerLayer:vector(packetBytes)  ETV
attr interpolationmode  none
attr source  receivedPacketFromLowerLayer
vector 214  CAIN.ueD2DTx[3].nic.mac  racpkt:vector  ETV
attr interpolationmode  none
attr title  "eNB received racpkt message, vector"
vector 215  CAIN.ueD2DTx[3].nic.mac  racDistanceSignal:vector  ETV
attr interpolationmode  none
attr title  "Rac distance to enb, vector"
vector 230  CAIN.ueD2DTx[4].nic.mac  receivedPacketFromLowerLayer:vector(packetBytes)  ETV
attr interpolationmode  none
attr source  receivedPacketFromLowerLayer
vector 241  CAIN.ueD2DTx[4].nic.mac  racpkt:vector  ETV
attr interpolationmode  none
attr title  "eNB received racpkt message, vector"
vector 242  CAIN.ueD2DTx[4].nic.mac  racDistanceSignal:vector  ETV
attr interpolationmode  none
attr title  "Rac distance to enb, vector"
vector 232  CAIN.ueD2DTx[4].nic.mac  sentPacketToLowerLayer:vector(packetBytes)  ETV
attr interpolationmode  none
attr source  sentPacketToLowerLayer
vector 204  CAIN.ueD2DTx[3].nic.mac  sentPacketToUpperLayer:vector(packetBytes)  ETV
attr interpolationmode  none
attr source  sentPacketToUpperLayer
vector 122  CAIN.ueD2DTx[0].nic.mac  receivedPacketFromLowerLayer:vector(packetBytes)  ETV
attr interpolationmode  none
attr source  receivedPacketFromLowerLayer
vector 133  CAIN.ueD2DTx[0].nic.mac  racpkt:vector  ETV
attr interpolationmode  none
attr title  "eNB received racpkt message, vector"
vector 134  CAIN.ueD2DTx[0].nic.mac  racDistanceSignal:vector  ETV
attr interpolationmode  none
attr title  "Rac distance to enb, vector"
vector 124  CAIN.ueD2DTx[0].nic.mac  sentPacketToLowerLayer:vector(packetBytes)  ETV
attr interpolationmode  none
attr source  sentPacketToLowerLayer
vector 149  CAIN.ueD2DTx[1].nic.mac  receivedPacketFromLowerLayer:vector(packetBytes)  ETV
attr interpolationmode  none
attr source  receivedPacketFromLowerLayer
vector 160  CAIN.ueD2DTx[1].nic.mac  racpkt:vector  ETV
attr interpolationmode  none
attr title  "eNB received racpkt message, vector"
vector 161  CAIN.ueD2DTx[1].nic.mac  racDistanceSignal:vector  ETV
attr interpolationmode  none
attr title  "Rac distance to enb, vector"
vector 151  CAIN.ueD2DTx[1].nic.mac  sentPacketToLowerLayer:vector(packetBytes)  ETV
attr interpolationmode  none
attr source  sentPacketToLowerLayer
vector 176  CAIN.ueD2DTx[2].nic.mac  receivedPacketFromLowerLayer:vector(packetBytes)  ETV
attr interpolationmode  none
attr source  receivedPacketFromLowerLayer
vector 187  CAIN.ueD2DTx[2].nic.mac  racpkt:vector  ETV
attr interpolationmode  none
attr title  "eNB received racpkt message, vector"
vector 188  CAIN.ueD2DTx[2].nic.mac  racDistanceSignal:vector  ETV
attr interpolationmode  none
attr title  "Rac distance to enb, vector"
vector 178  CAIN.ueD2DTx[2].nic.mac  sentPacketToLowerLayer:vector(packetBytes)  ETV
attr interpolationmode  none
attr source  sentPacketToLowerLayer
vector 99  CAIN.eNodeB.nic.phy  averageCqiUlvect:vector  ETV
attr source  averageCqiUlvect
attr title  "Average Cqi reported in UL, vector"
attr unit  cqi
vector 93  CAIN.eNodeB.nic.mac  ServedDevs:vector  ETV
attr interpolationmode  none
attr title  "# of devices served on cain forwarding, vector"
vector 91  CAIN.eNodeB.nic.mac  DistanceSignal:vector  ETV
attr interpolationmode  none
attr title  "Distance to enb, vector"
vector 89  CAIN.eNodeB.nic.mac  CainMessage:vector  ETV
attr interpolationmode  none
attr title  "eNB received CAIN message, vector"
vector 92  CAIN.eNodeB.nic.mac  HopDistanceSignal:vector  ETV
attr interpolationmode  none
attr title  "Distance to enb with hop forwarding, vector"
vector 90  CAIN.eNodeB.nic.mac  CainHopMessage:vector  ETV
attr interpolationmode  none
attr title  "eNB received CAIN hop message, vector"
vector 86  CAIN.eNodeB.nic.mac  sentPacketToUpperLayer:vector(packetBytes)  ETV
attr interpolationmode  none
attr source  sentPacketToUpperLayer
vector 81  CAIN.eNodeB.nic.pdcpRrc  receivedPacketFromLowerLayer:vector(packetBytes)  ETV
attr interpolationmode  none
attr source  receivedPacketFromLowerLayer
vector 82  CAIN.eNodeB.nic.pdcpRrc  sentPacketToUpperLayer:vector(packetBytes)  ETV
attr interpolationmode  none
attr source  sentPacketToUpperLayer
vector 80  CAIN.eNodeB.nic.pdcpRrc  receivedPacketFromUpperLayer:vector(packetBytes)  ETV
attr interpolationmode  none
attr source  receivedPacketFromUpperLayer
vector 83  CAIN.eNodeB.nic.pdcpRrc  sentPacketToLowerLayer:vector(packetBytes)  ETV
attr interpolationmode  none
attr source  sentPacketToLowerLayer
vector 84  CAIN.eNodeB.nic.mac  receivedPacketFromUpperLayer:vector(packetBytes)  ETV
attr interpolationmode  none
attr source  receivedPacketFromUpperLayer
vector 88  CAIN.eNodeB.nic.mac  measuredItbs:vector  ETV
attr source  measuredItbs
attr title  "TBS index, vector"
attr unit  ""
vector 135  CAIN.ueD2DTx[0].nic.phy  averageCqiDlvect:vector  ETV
attr source  averageCqiDlvect
attr title  "Average Cqi reported in DL, vector"
attr unit  cqi
vector 123  CAIN.ueD2DTx[0].nic.mac  sentPacketToUpperLayer:vector(packetBytes)  ETV
attr interpolationmode  none
attr source  sentPacketToUpperLayer
vector 118  CAIN.ueD2DTx[0].nic.pdcpRrc  receivedPacketFromLowerLayer:vector(packetBytes)  ETV
attr interpolationmode  none
attr source  receivedPacketFromLowerLayer
vector 119  CAIN.ueD2DTx[0].nic.pdcpRrc  sentPacketToUpperLayer:vector(packetBytes)  ETV
attr interpolationmode  none
attr source  sentPacketToUpperLayer
vector 288  CAIN.ueD2DTx[4].tcp  tcpRcvQueueBytes  ETV
vector 275  CAIN.ueD2DTx[4].tcp  "advertised window"  ETV
vector 274  CAIN.ueD2DTx[4].tcp  "receive window"  ETV
vector 277  CAIN.ueD2DTx[4].tcp  "sent ack"  ETV
vector 225  CAIN.ueD2DTx[4].nic.pdcpRrc  receivedPacketFromUpperLayer:vector(packetBytes)  ETV
attr interpolationmode  none
attr source  receivedPacketFromUpperLayer
vector 228  CAIN.ueD2DTx[4].nic.pdcpRrc  sentPacketToLowerLayer:vector(packetBytes)  ETV
attr interpolationmode  none
attr source  sentPacketToLowerLayer
vector 229  CAIN.ueD2DTx[4].nic.mac  receivedPacketFromUpperLayer:vector(packetBytes)  ETV
attr interpolationmode  none
attr source  receivedPacketFromUpperLayer
vector 312  CAIN.ueD2DTx[0].tcp  tcpRcvQueueBytes  ETV
vector 299  CAIN.ueD2DTx[0].tcp  "advertised window"  ETV
vector 298  CAIN.ueD2DTx[0].tcp  "receive window"  ETV
vector 301  CAIN.ueD2DTx[0].tcp  "sent ack"  ETV
vector 117  CAIN.ueD2DTx[0].nic.pdcpRrc  receivedPacketFromUpperLayer:vector(packetBytes)  ETV
attr interpolationmode  none
attr source  receivedPacketFromUpperLayer
vector 120  CAIN.ueD2DTx[0].nic.pdcpRrc  sentPacketToLowerLayer:vector(packetBytes)  ETV
attr interpolationmode  none
attr source  sentPacketToLowerLayer
vector 121  CAIN.ueD2DTx[0].nic.mac  receivedPacketFromUpperLayer:vector(packetBytes)  ETV
attr interpolationmode  none
attr source  receivedPacketFromUpperLayer
vector 231  CAIN.ueD2DTx[4].nic.mac  sentPacketToUpperLayer:vector(packetBytes)  ETV
attr interpolationmode  none
attr source  sentPacketToUpperLayer
vector 336  CAIN.ueD2DTx[1].tcp  tcpRcvQueueBytes  ETV
vector 323  CAIN.ueD2DTx[1].tcp  "advertised window"  ETV
vector 322  CAIN.ueD2DTx[1].tcp  "receive window"  ETV
vector 325  CAIN.ueD2DTx[1].tcp  "sent ack"  ETV
vector 144  CAIN.ueD2DTx[1].nic.pdcpRrc  receivedPacketFromUpperLayer:vector(packetBytes)  ETV
attr interpolationmode  none
attr source  receivedPacketFromUpperLayer
vector 147  CAIN.ueD2DTx[1].nic.pdcpRrc  sentPacketToLowerLayer:vector(packetBytes)  ETV
attr interpolationmode  none
attr source  sentPacketToLowerLayer
vector 148  CAIN.ueD2DTx[1].nic.mac  receivedPacketFromUpperLayer:vector(packetBytes)  ETV
attr interpolationmode  none
attr source  receivedPacketFromUpperLayer
vector 216  CAIN.ueD2DTx[3].nic.phy  averageCqiDlvect:vector  ETV
attr source  averageCqiDlvect
attr title  "Average Cqi reported in DL, vector"
attr unit  cqi
vector 199  CAIN.ueD2DTx[3].nic.pdcpRrc  receivedPacketFromLowerLayer:vector(packetBytes)  ETV
attr interpolationmode  none
attr source  receivedPacketFromLowerLayer
vector 200  CAIN.ueD2DTx[3].nic.pdcpRrc  sentPacketToUpperLayer:vector(packetBytes)  ETV
attr interpolationmode  none
attr source  sentPacketToUpperLayer
vector 360  CAIN.ueD2DTx[2].tcp  tcpRcvQueueBytes  ETV
vector 347  CAIN.ueD2DTx[2].tcp  "advertised window"  ETV
vector 346  CAIN.ueD2DTx[2].tcp  "receive window"  ETV
vector 349  CAIN.ueD2DTx[2].tcp  "sent ack"  ETV
vector 171  CAIN.ueD2DTx[2].nic.pdcpRrc  receivedPacketFromUpperLayer:vector(packetBytes)  ETV
attr interpolationmode  none
attr source  receivedPacketFromUpperLayer
vector 174  CAIN.ueD2DTx[2].nic.pdcpRrc  sentPacketToLowerLayer:vector(packetBytes)  ETV
attr interpolationmode  none
attr source  sentPacketToLowerLayer
vector 175  CAIN.ueD2DTx[2].nic.mac  receivedPacketFromUpperLayer:vector(packetBytes)  ETV
attr interpolationmode  none
attr source  receivedPacketFromUpperLayer
vector 177  CAIN.ueD2DTx[2].nic.mac  sentPacketToUpperLayer:vector(packetBytes)  ETV
attr interpolationmode  none
attr source  sentPacketToUpperLayer
vector 164  CAIN.ueD2DTx[1].nic.phy  averageCqiD2Dvect:vector  ETV
attr source  averageCqiD2Dvect
attr title  "Average Cqi reported in D2D, vector"
attr unit  cqi
vector 150  CAIN.ueD2DTx[1].nic.mac  sentPacketToUpperLayer:vector(packetBytes)  ETV
attr interpolationmode  none
attr source  sentPacketToUpperLayer
vector 137  CAIN.ueD2DTx[0].nic.phy  averageCqiD2Dvect:vector  ETV
attr source  averageCqiD2Dvect
attr title  "Average Cqi reported in D2D, vector"
attr unit  cqi
vector 145  CAIN.ueD2DTx[1].nic.pdcpRrc  receivedPacketFromLowerLayer:vector(packetBytes)  ETV
attr interpolationmode  none
attr source  receivedPacketFromLowerLayer
vector 146  CAIN.ueD2DTx[1].nic.pdcpRrc  sentPacketToUpperLayer:vector(packetBytes)  ETV
attr interpolationmode  none
attr source  sentPacketToUpperLayer
8	17521 8 0 0 0 0 1 0 0 0 0
9	17529 8 0 0 0 0 1 0 0 0 0
24	17537 9 0 0 0 0 1 0 0 0 0
25	17546 9 0 0 0 0 1 0 0 0 0
35	17555 9 0 0 0 0 1 0 0 0 0
36	17564 9 0 0 0 0 1 0 0 0 0
56	17573 9 0 0 0 0 1 0 0 0 0
57	17582 9 0 0 0 0 1 0 0 0 0
67	17591 9 0 0 0 0 1 0 0 0 0
68	17600 9 0 0 0 0 1 0 0 0 0
80	17609 157 514 358476 0.037 9.1 9 44 44 396 17424
81	17766 157 509 358471 0.037 9.1 9 45 45 405 18225
82	17923 157 509 358471 0.037 9.1 9 44 44 396 17424
83	18080 157 514 358476 0.037 9.1 9 45 45 405 18225
84	18237 317 517 358519 0.037 9.101 18 45 47 828 38106
85	18554 497220 60 394086 0.002 10 28230 0 0 0 0
86	515774 308 505 358514 0.037 9.101 18 0 47 423 19881
87	516082 348420 360 394086 0.03 10 19913 0 0 0 0
88	864502 236 524 358514 0.038 9.101 13 26 26 338 8788
89	864738 334146 465 394076 0.034 9.999 15893 1 15893 126301671 1338250405359
90	1198884 247818 495 394043 0.036 9.998 11919 1 11919 71037240 564485588120
91	1446702 74406 465 394076 0.034 9.999 3974 93 93 369582 34371126
92	1521108 235086 495 394043 0.036 9.998 11919 208 265 2709586 624436410
93	1756194 70432 465 394076 0.034 9.999 3974 1 1 3974 3974
96	1826626 333157 360 394086 0.03 10 15899 1 15899 126397050 1339766597650
97	2159783 300540 360 394086 0.03 10 15899 93 265 1937773 275979089
99	2460323 235 453 358336 0.034 9.097 13 2 15 155 2161
104	2460558 10 0 0 0 0 1 0 0 0 0
105	2460568 10 0 0 0 0 1 0 0 0 0
117	2460578 81 736 356536 0.05397567366 9.05397567366 3 44 44 132 5808
118	2460659 153 581 358694 0.042 9.105 8 45 45 360 16200
119	2460812 153 581 358694 0.042 9.105 8 44 44 352 15488
120	2460965 81 736 356536 0.05397567366 9.05397567366 3 45 45 135 6075
121	2461046 121 739 356539 0.05397567366 9.05397567366 5 45 47 229 10493
122	2461167 110779 435 394092 0.033 10 5976 0 0 0 0
123	2571946 191 577 358690 0.042 9.105 10 0 47 376 17672
124	2572137 110717 435 394092 0.033 10 5973 0 0 0 0
133	2682854 84175 435 394092 0.033 10 3977 1 3977 7910253 20975354205
134	2767029 77326 435 394092 0.033 10 3977 0 93 369675 34379775
135	2844355 115 555 358579 0.039 9.102 6 15 15 90 1350
137	2844470 40 119210 356409 3.047 9.047 2 15 15 30 450
138	2844510 10 0 0 0 0 1 1 1 1 1
144	2844520 84 807 356606 0.055804926315 9.055804926315 3 44 44 132 5808
145	2844604 40 119232 356431 3.048 9.048 2 45 45 90 4050
146	2844644 40 119232 356431 3.048 9.048 2 44 44 88 3872
147	2844684 84 807 356606 0.055804926315 9.055804926315 3 45 45 135 6075
148	2844768 124 810 356609 0.055804926315 9.055804926315 5 45 47 229 10493
149	2844892 110670 438 394095 0.033 10 5970 0 0 0 0
150	2955562 78 119175 356427 3.046 9.048 4 0 47 94 4418
151	2955640 110591 438 394095 0.033 10 5966 0 0 0 0
160	3066231 84175 438 394095 0.033 10 3977 1 3977 7910253 20975354205
161	3150406 77326 438 394095 0.033 10 3977 0 93 369675 34379775
164	3227732 40 119150 356349 3.045 9.045 2 15 15 30 450
165	3227772 10 0 0 0 0 1 1 1 1 1
171	3227782 85 2266 358064 0.091798152702 9.091798152702 3 44 44 132 5808
174	3227867 85 2266 358064 0.091798152702 9.091798152702 3 45 45 135 6075
175	3227952 143 2269 358269 0.091798152702 9.096 6 45 47 276 12702
176	3228095 73423 441 394098 0.033 10 3981 0 0 0 0
177	3301518 55 2467 358265 0.096 9.096 3 0 0 0 0
178	3301573 73423 441 394098 0.033 10 3981 0 0 0 0
187	3374996 84131 441 394098 0.033 10 3975 1 3975 7902300 20943729100
188	3459127 77288 441 394098 0.033 10 3975 93 93 369675 34379775
192	3536415 10 0 0 0 0 1 1 1 1 1
198	3536425 84 335 355694 0.028144173173 9.028144173173 3 44 44 132 5808
199	3536509 58 1161 356960 0.064 9.064 3 45 45 135 6075
200	3536567 58 1161 356960 0.064 9.064 3 44 44 132 5808
201	3536625 84 335 355694 0.028144173173 9.028144173173 3 45 45 135 6075
202	3536709 141 338 355903 0.028144173173 9.033 6 45 47 276 12702
203	3536850 591049 379 394110 0.031 10 31806 0 0 0 0
204	4127899 112 425 356956 0.033 9.064 6 0 47 141 6627
205	4128011 591049 343 394110 0.029 10 31806 0 0 0 0
214	4719060 706968 379 394110 0.031 10 31797 1 31797 505540503 10716616096095
215	5426028 606783 379 394110 0.031 10 31797 0 93 1478421 137493153
216	6032811 58 1036 356835 0.061 9.061 3 15 15 45 675
219	6032869 10 0 0 0 0 1 1 1 1 1
225	6032879 84 687 356486 0.050582632213 9.050582632213 3 44 44 132 5808
228	6032963 84 687 356486 0.050582632213 9.050582632213 3 45 45 135 6075
229	6033047 141 690 356581 0.050582632213 9.055 6 45 47 276 12702
230	6033188 521009 410 394073 0.032 9.999 27828 0 0 0 0
231	6554197 54 777 356577 0.055 9.055 3 0 0 0 0
232	6554251 521012 410 394073 0.032 9.999 27828 0 0 0 0
241	7075263 621086 410 394073 0.032 9.999 27822 1 27822 387045753 7179053641895
242	7696349 560648 410 394073 0.032 9.999 27822 93 265 4188968 762112680
246	8256997 10 0 0 0 0 1 1 1 1 1
250	8257007 90 332 355691 0.028144173173 9.028144173173 3 7504 7504 22512 168930048
251	8257097 90 332 355691 0.028144173173 9.028144173173 3 7504 7504 22512 168930048
253	8257187 81 332 355691 0.028144173173 9.028144173173 3 0 0 0 0
264	8257268 81 332 355691 0.028144173173 9.028144173173 3 0 0 0 0
274	8257349 90 684 356483 0.050582632213 9.050582632213 3 7504 7504 22512 168930048
275	8257439 90 684 356483 0.050582632213 9.050582632213 3 7504 7504 22512 168930048
277	8257529 81 684 356483 0.050582632213 9.050582632213 3 0 0 0 0
288	8257610 81 684 356483 0.050582632213 9.050582632213 3 0 0 0 0
298	8257691 87 733 356533 0.05397567366 9.05397567366 3 7504 7504 22512 168930048
299	8257778 87 733 356533 0.05397567366 9.05397567366 3 7504 7504 22512 168930048
301	8257865 78 733 356533 0.05397567366 9.05397567366 3 0 0 0 0
312	8257943 78 733 356533 0.05397567366 9.05397567366 3 0 0 0 0
322	8258021 90 804 356603 0.055804926315 9.055804926315 3 7504 7504 22512 168930048
323	8258111 90 804 356603 0.055804926315 9.055804926315 3 7504 7504 22512 168930048
325	8258201 81 804 356603 0.055804926315 9.055804926315 3 0 0 0 0
336	8258282 81 804 356603 0.055804926315 9.055804926315 3 0 0 0 0
346	8258363 91 2263 358061 0.091798152702 9.091798152702 3 7504 7504 22512 168930048
347	8258454 91 2263 358061 0.091798152702 9.091798152702 3 7504 7504 22512 168930048
349	8258545 82 2263 358061 0.091798152702 9.091798152702 3 0 0 0 0
360	8258627 82 2263 358061 0.091798152702 9.091798152702 3 0 0 0 0
