file 6512240 1588964179                                         
version 2
run CAIN-37-20200508-15:48:11-11196
attr configname CAIN
attr datetime 20200508-15:48:11
attr dist 200
attr experiment CAIN
attr extAllocType "\"RANDOM_ALLOC\""
attr inifile omnetpp.ini
attr iterationvars "$numUe=20, $pwr=-50, $dist=200, $mob=\"./movements/RPGM-0.0.movements\", $extAllocType=\"RANDOM_ALLOC\""
attr iterationvars2 "$numUe=20, $pwr=-50, $dist=200, $mob=\"./movements/RPGM-0.0.movements\", $extAllocType=\"RANDOM_ALLOC\", $repetition=2"
attr measurement "$numUe=20, $pwr=-50, $dist=200, $mob=\"./movements/RPGM-0.0.movements\", $extAllocType=\"RANDOM_ALLOC\""
attr mob "\"./movements/RPGM-0.0.movements\""
attr network lte.simulations.networks.CAIN
attr numUe 20
attr processid 11196
attr pwr -50
attr repetition 2
attr replication #2
attr resultdir results
attr runnumber 37
attr seedset 2
param **.**.amcMode "\"AUTO\""
param **.amcMode "\"D2D\""
param **.cainNetwork true
param **.channelControl.alpha 1.0
param **.channelControl.carrierFrequency 2100e+6Hz
param **.channelControl.pMax 10W
param **.d2dCqi 7
param **.deployer.numRbDl 50
param **.deployer.numRbUl 50
param **.distThresh ${dist=200}
param **.fbDelay 1
param **.feedbackComputation "xmldoc(\"config_channel.xml\")"
param **.mobility.constraintAreaMaxX 1000m
param **.mobility.constraintAreaMaxY 1000m
param **.mobility.constraintAreaMaxZ 0m
param **.mobility.constraintAreaMinX 0m
param **.mobility.constraintAreaMinY 0m
param **.mobility.constraintAreaMinZ 0m
param **.nic.phy.channelModel "xmldoc(\"config_channel.xml\")"
param **.numBands 50
param **.pwrThresh "${pwr= -50}"
param **.qtdThresh 3
param **.rbAllocationType "\"localized\""
param **.routingRecorder.enabled false
param **.tcpApp[*].tClose -1s
param **.ueD2DTx[*].mobility.changeAngleBy "normal(0deg, 30deg)"
param **.ueD2DTx[*].mobility.changeInterval "normal(5s, 0.1s)"
param **.ueD2DTx[*].mobility.nodeId -1
param **.ueD2DTx[*].mobility.speed "normal(2mps, 0.01mps)"
param **.ueD2DTx[*].mobility.traceFile "${mob=\"./movements/RWP-0.0.movements\",\"./movements/RWP-0.5.movements\",\"./movements/RPGM-0.0.movements\",\"./movements/RPGM-0.5.movements\",\"./movements/RWPRPGM-0.0.movements\",\"./movements/RWPRPGM-0.5.movements\"}"
param **.ueD2DTx[*].mobilityType "\"BonnMotionMobility\""
param **.usePreconfiguredTxParams false
param *.eNodeB*.numX2Apps 1
param *.eNodeB*.x2App[*].server.localPort "5000 + ancestorIndex(1)"
param *.eNodeB.d2dCapable false
param *.eNodeB.mobility.initFromDisplayString false
param *.eNodeB.mobility.initialX 300m
param *.eNodeB.mobility.initialY 300m
param *.eNodeB.nic.phy.enableD2DCqiReporting true
param *.eNodeB.txPower 19952.62315mw
param *.eNodeB.x2App[0].client.connectAddress "\"eNodeB1%x2ppp0\""
param *.eNodeB1.d2dCapable true
param *.eNodeB1.mobility.initFromDisplayString false
param *.eNodeB1.mobility.initialX 700m
param *.eNodeB1.mobility.initialY 300m
param *.eNodeB1.nic.phy.enableD2DCqiReporting true
param *.eNodeB1.txPower 19952.62315mw
param *.eNodeB1.x2App[0].client.connectAddress "\"eNodeB%x2ppp0\""
param *.extCell[*].bandAllocationType "${extAllocType=\"FULL_ALLOC\",\"RANDOM_ALLOC\",\"CONTIGUOUS_ALLOC\"}"
param *.extCell[*].bandUtilization 0.5
param *.extCell[*].txDirection "\"ANISOTROPIC\""
param *.extCell[*].txPower 20
param *.extCell[0].position_x 100m
param *.extCell[0].position_y 600m
param *.extCell[0].txAngle 315
param *.extCell[1].position_x 600m
param *.extCell[1].position_y 600m
param *.extCell[1].txAngle 225
param *.numExtCells 2
param *.numUeCell 0
param *.numUeD2DRx 1
param *.numUeD2DTx 1
param *.ue*.macCellId 1
param *.ue*.masterId 1
param *.ue*.mobility.initFromDisplayString false
param *.ue*[0].macCellId 1
param *.ue*[0].masterId 1
param *.ue*[0].mobility.initFromDisplayString false
param *.ueD2D*.numTcpApps 1
param *.ueD2D*[*].d2dCapable true
param *.ueD2D*[0].d2dCapable false
param *.ueD2D*[0].numTcpApps 1
param *.ueD2DRx[0].mobility.initialX 310m
param *.ueD2DRx[0].mobility.initialY 350m
param *.ueD2DRx[0].tcpApp[*].localPort 1000
param *.ueD2DRx[0].tcpApp[*].typename "\"TCPSinkApp\""
param *.ueD2DTx*.nic.d2dPeerAddresses "\"ueD2DTx[1]\""
param *.ueD2DTx*.tcpApp[*].connectAddress "\"ueD2DTx[0]\""
param *.ueD2DTx*.tcpApp[*].localAddress "\"ueD2DTx\""
param *.ueD2DTx*.tcpApp[*].localPort 1000
param *.ueD2DTx*.tcpApp[*].sendBytes 1GiB
param *.ueD2DTx*.tcpApp[*].typename "\"TCPSessionApp\""
param *.ueD2DTx*.tcpApp[0].active true
param *.ueD2DTx*.tcpApp[0].connectPort 1000
param *.ueD2DTx*.tcpApp[0].tOpen uniform(0.010s,0.1s)
param *.ueD2DTx*.tcpApp[0].tSend uniform(0.15s,0.5s)
param *.ueD2DTx[0].mobility.initialX 290m
param *.ueD2DTx[0].mobility.initialY 350m
param *.ueD2DTx[0].tcpApp[*].localPort 1000
param *.ueD2DTx[0].tcpApp[*].sendBytes 1GiB
param *.ueD2DTx[0].tcpApp[*].typename "\"TCPSessionApp\""
param *.ueD2DTx[0].tcpApp[0].active true
param *.ueD2DTx[0].tcpApp[0].connectAddress "\"ueD2DRx[0]\""
param *.ueD2DTx[0].tcpApp[0].connectPort 1000
param *.ueD2DTx[0].tcpApp[0].localAddress "\"ueD2DTx[0]\""
param *.ueD2DTx[0].tcpApp[0].tOpen uniform(0.010s,0.1s)
param *.ueD2DTx[0].tcpApp[0].tSend uniform(0.15s,0.5s)
param *.ueD2DTx[1].mobility.initialX 690m
param *.ueD2DTx[1].mobility.initialY 250m

vector 8  CAIN.server.ppp[0].queue  queueLength:vector  ETV
attr interpolationmode  sample-hold
attr title  "queue length, vector"
vector 9  CAIN.server.ppp[0].ppp  txState:vector  ETV
attr interpolationmode  sample-hold
attr title  "tx state, vector"
vector 24  CAIN.router.ppp[0].queue  queueLength:vector  ETV
attr interpolationmode  sample-hold
attr title  "queue length, vector"
vector 25  CAIN.router.ppp[0].ppp  txState:vector  ETV
attr interpolationmode  sample-hold
attr title  "tx state, vector"
vector 35  CAIN.router.ppp[1].queue  queueLength:vector  ETV
attr interpolationmode  sample-hold
attr title  "queue length, vector"
vector 36  CAIN.router.ppp[1].ppp  txState:vector  ETV
attr interpolationmode  sample-hold
attr title  "tx state, vector"
vector 56  CAIN.pgw.ppp[0].queue  queueLength:vector  ETV
attr interpolationmode  sample-hold
attr title  "queue length, vector"
vector 57  CAIN.pgw.ppp[0].ppp  txState:vector  ETV
attr interpolationmode  sample-hold
attr title  "tx state, vector"
vector 67  CAIN.pgw.ppp[1].queue  queueLength:vector  ETV
attr interpolationmode  sample-hold
attr title  "queue length, vector"
vector 68  CAIN.pgw.ppp[1].ppp  txState:vector  ETV
attr interpolationmode  sample-hold
attr title  "tx state, vector"
vector 78  CAIN.pgw.pppInterface.queue  queueLength:vector  ETV
attr interpolationmode  sample-hold
attr title  "queue length, vector"
vector 79  CAIN.pgw.pppInterface.ppp  txState:vector  ETV
attr interpolationmode  sample-hold
attr title  "tx state, vector"
vector 120  CAIN.eNodeB.pppIf.queue  queueLength:vector  ETV
attr interpolationmode  sample-hold
attr title  "queue length, vector"
vector 121  CAIN.eNodeB.pppIf.ppp  txState:vector  ETV
attr interpolationmode  sample-hold
attr title  "tx state, vector"
vector 131  CAIN.eNodeB.x2ppp[0].queue  queueLength:vector  ETV
attr interpolationmode  sample-hold
attr title  "queue length, vector"
vector 132  CAIN.eNodeB.x2ppp[0].ppp  txState:vector  ETV
attr interpolationmode  sample-hold
attr title  "tx state, vector"
vector 178  CAIN.eNodeB1.pppIf.queue  queueLength:vector  ETV
attr interpolationmode  sample-hold
attr title  "queue length, vector"
vector 179  CAIN.eNodeB1.pppIf.ppp  txState:vector  ETV
attr interpolationmode  sample-hold
attr title  "tx state, vector"
vector 189  CAIN.eNodeB1.x2ppp[0].queue  queueLength:vector  ETV
attr interpolationmode  sample-hold
attr title  "queue length, vector"
vector 190  CAIN.eNodeB1.x2ppp[0].ppp  txState:vector  ETV
attr interpolationmode  sample-hold
attr title  "tx state, vector"
vector 231  CAIN.ueD2DTx[0].nic.phy  servingCell:vector  ETV
attr source  servingCell
attr title  "ID of the serving eNodeB for the UE, vector"
attr unit  ""
vector 263  CAIN.ueD2DTx[1].nic.phy  servingCell:vector  ETV
attr source  servingCell
attr title  "ID of the serving eNodeB for the UE, vector"
attr unit  ""
vector 295  CAIN.ueD2DTx[2].nic.phy  servingCell:vector  ETV
attr source  servingCell
attr title  "ID of the serving eNodeB for the UE, vector"
attr unit  ""
vector 327  CAIN.ueD2DTx[3].nic.phy  servingCell:vector  ETV
attr source  servingCell
attr title  "ID of the serving eNodeB for the UE, vector"
attr unit  ""
vector 359  CAIN.ueD2DTx[4].nic.phy  servingCell:vector  ETV
attr source  servingCell
attr title  "ID of the serving eNodeB for the UE, vector"
attr unit  ""
vector 391  CAIN.ueD2DTx[5].nic.phy  servingCell:vector  ETV
attr source  servingCell
attr title  "ID of the serving eNodeB for the UE, vector"
attr unit  ""
vector 423  CAIN.ueD2DTx[6].nic.phy  servingCell:vector  ETV
attr source  servingCell
attr title  "ID of the serving eNodeB for the UE, vector"
attr unit  ""
vector 455  CAIN.ueD2DTx[7].nic.phy  servingCell:vector  ETV
attr source  servingCell
attr title  "ID of the serving eNodeB for the UE, vector"
attr unit  ""
vector 487  CAIN.ueD2DTx[8].nic.phy  servingCell:vector  ETV
attr source  servingCell
attr title  "ID of the serving eNodeB for the UE, vector"
attr unit  ""
vector 519  CAIN.ueD2DTx[9].nic.phy  servingCell:vector  ETV
attr source  servingCell
attr title  "ID of the serving eNodeB for the UE, vector"
attr unit  ""
vector 551  CAIN.ueD2DTx[10].nic.phy  servingCell:vector  ETV
attr source  servingCell
attr title  "ID of the serving eNodeB for the UE, vector"
attr unit  ""
vector 583  CAIN.ueD2DTx[11].nic.phy  servingCell:vector  ETV
attr source  servingCell
attr title  "ID of the serving eNodeB for the UE, vector"
attr unit  ""
vector 615  CAIN.ueD2DTx[12].nic.phy  servingCell:vector  ETV
attr source  servingCell
attr title  "ID of the serving eNodeB for the UE, vector"
attr unit  ""
vector 647  CAIN.ueD2DTx[13].nic.phy  servingCell:vector  ETV
attr source  servingCell
attr title  "ID of the serving eNodeB for the UE, vector"
attr unit  ""
vector 679  CAIN.ueD2DTx[14].nic.phy  servingCell:vector  ETV
attr source  servingCell
attr title  "ID of the serving eNodeB for the UE, vector"
attr unit  ""
vector 711  CAIN.ueD2DTx[15].nic.phy  servingCell:vector  ETV
attr source  servingCell
attr title  "ID of the serving eNodeB for the UE, vector"
attr unit  ""
vector 743  CAIN.ueD2DTx[16].nic.phy  servingCell:vector  ETV
attr source  servingCell
attr title  "ID of the serving eNodeB for the UE, vector"
attr unit  ""
vector 775  CAIN.ueD2DTx[17].nic.phy  servingCell:vector  ETV
attr source  servingCell
attr title  "ID of the serving eNodeB for the UE, vector"
attr unit  ""
vector 807  CAIN.ueD2DTx[18].nic.phy  servingCell:vector  ETV
attr source  servingCell
attr title  "ID of the serving eNodeB for the UE, vector"
attr unit  ""
vector 839  CAIN.ueD2DTx[19].nic.phy  servingCell:vector  ETV
attr source  servingCell
attr title  "ID of the serving eNodeB for the UE, vector"
attr unit  ""
vector 863  CAIN.eNodeB.sctp  "Throughput of Association 3"  ETV
vector 885  CAIN.eNodeB1.sctp  "Throughput of Association 4"  ETV
vector 907  CAIN.eNodeB.sctp  "Throughput of Association 1"  ETV
vector 927  CAIN.eNodeB.sctp  "Fast Recovery State 1:10.0.5.2"  ETV
vector 956  CAIN.eNodeB1.sctp  "Throughput of Association 2"  ETV
vector 976  CAIN.eNodeB1.sctp  "Fast Recovery State 2:10.0.5.1"  ETV
vector 128  CAIN.eNodeB.x2ppp[0].queue  rcvdPk:vector(packetBytes)  ETV
attr interpolationmode  none
attr title  "received packets, vector(packetBytes)"
vector 130  CAIN.eNodeB.x2ppp[0].queue  queueingTime:vector  ETV
attr interpolationmode  none
attr title  "queueing time, vector"
vector 186  CAIN.eNodeB1.x2ppp[0].queue  rcvdPk:vector(packetBytes)  ETV
attr interpolationmode  none
attr title  "received packets, vector(packetBytes)"
vector 188  CAIN.eNodeB1.x2ppp[0].queue  queueingTime:vector  ETV
attr interpolationmode  none
attr title  "queueing time, vector"
vector 137  CAIN.eNodeB.x2ppp[0].ppp  rcvdPkFromHL:vector(packetBytes)  ETV
attr interpolationmode  none
attr source  packetReceivedFromUpper
attr title  "packets received from higher layer, vector(packetBytes)"
vector 133  CAIN.eNodeB.x2ppp[0].ppp  txPk:vector(packetBytes)  ETV
attr interpolationmode  none
attr source  packetSentToLower
attr title  "packets transmitted, vector(packetBytes)"
vector 195  CAIN.eNodeB1.x2ppp[0].ppp  rcvdPkFromHL:vector(packetBytes)  ETV
attr interpolationmode  none
attr source  packetReceivedFromUpper
attr title  "packets received from higher layer, vector(packetBytes)"
vector 191  CAIN.eNodeB1.x2ppp[0].ppp  txPk:vector(packetBytes)  ETV
attr interpolationmode  none
attr source  packetSentToLower
attr title  "packets transmitted, vector(packetBytes)"
vector 192  CAIN.eNodeB1.x2ppp[0].ppp  rxPkOk:vector(packetBytes)  ETV
attr interpolationmode  none
attr source  rxPkOk
attr title  "packets received OK, vector(packetBytes)"
vector 196  CAIN.eNodeB1.x2ppp[0].ppp  passedUpPk:vector(packetBytes)  ETV
attr interpolationmode  none
attr source  packetSentToUpper
attr title  "packets passed to higher layer, vector(packetBytes)"
vector 134  CAIN.eNodeB.x2ppp[0].ppp  rxPkOk:vector(packetBytes)  ETV
attr interpolationmode  none
attr source  rxPkOk
attr title  "packets received OK, vector(packetBytes)"
vector 138  CAIN.eNodeB.x2ppp[0].ppp  passedUpPk:vector(packetBytes)  ETV
attr interpolationmode  none
attr source  packetSentToUpper
attr title  "packets passed to higher layer, vector(packetBytes)"
vector 1005  CAIN.eNodeB1.sctp  "Throughput of Association 4"  ETV
vector 882  CAIN.eNodeB1.sctp  "Peer Rwnd 4"  ETV
vector 1025  CAIN.eNodeB1.sctp  "Fast Recovery State 5:10.0.4.1"  ETV
vector 1052  CAIN.eNodeB1.sctp  "Fast Recovery State 5:10.0.2.2"  ETV
vector 1079  CAIN.eNodeB1.sctp  "Fast Recovery State 5:10.0.5.1"  ETV
vector 1108  CAIN.eNodeB.sctp  "Throughput of Association 3"  ETV
vector 860  CAIN.eNodeB.sctp  "Peer Rwnd 3"  ETV
vector 1128  CAIN.eNodeB.sctp  "Fast Recovery State 6:10.0.4.2"  ETV
vector 1155  CAIN.eNodeB.sctp  "Fast Recovery State 6:10.0.3.2"  ETV
vector 1182  CAIN.eNodeB.sctp  "Fast Recovery State 6:10.0.5.2"  ETV
vector 904  CAIN.eNodeB.sctp  "Peer Rwnd 1"  ETV
vector 1209  CAIN.eNodeB.sctp  "Fast Recovery State 1:10.0.4.2"  ETV
vector 1236  CAIN.eNodeB.sctp  "Fast Recovery State 1:10.0.3.2"  ETV
vector 953  CAIN.eNodeB1.sctp  "Peer Rwnd 2"  ETV
vector 1263  CAIN.eNodeB1.sctp  "Fast Recovery State 2:10.0.4.1"  ETV
vector 1290  CAIN.eNodeB1.sctp  "Fast Recovery State 2:10.0.2.2"  ETV
vector 1035  CAIN.eNodeB1.sctp  "Slow Start Threshold 5:10.0.2.2"  ETV
vector 1036  CAIN.eNodeB1.sctp  "Congestion Window 5:10.0.2.2"  ETV
vector 1037  CAIN.eNodeB1.sctp  "Bandwidth 5:10.0.2.2"  ETV
vector 1040  CAIN.eNodeB1.sctp  "HB Sent 5:10.0.2.2"  ETV
vector 1033  CAIN.eNodeB1.sctp  "RTO 5:10.0.2.2"  ETV
vector 1008  CAIN.eNodeB1.sctp  "Slow Start Threshold 5:10.0.4.1"  ETV
vector 1009  CAIN.eNodeB1.sctp  "Congestion Window 5:10.0.4.1"  ETV
vector 1010  CAIN.eNodeB1.sctp  "Bandwidth 5:10.0.4.1"  ETV
vector 1013  CAIN.eNodeB1.sctp  "HB Sent 5:10.0.4.1"  ETV
vector 1006  CAIN.eNodeB1.sctp  "RTO 5:10.0.4.1"  ETV
vector 1062  CAIN.eNodeB1.sctp  "Slow Start Threshold 5:10.0.5.1"  ETV
vector 1063  CAIN.eNodeB1.sctp  "Congestion Window 5:10.0.5.1"  ETV
vector 1064  CAIN.eNodeB1.sctp  "Bandwidth 5:10.0.5.1"  ETV
vector 1060  CAIN.eNodeB1.sctp  "RTO 5:10.0.5.1"  ETV
vector 1138  CAIN.eNodeB.sctp  "Slow Start Threshold 6:10.0.3.2"  ETV
vector 1139  CAIN.eNodeB.sctp  "Congestion Window 6:10.0.3.2"  ETV
vector 1140  CAIN.eNodeB.sctp  "Bandwidth 6:10.0.3.2"  ETV
vector 1143  CAIN.eNodeB.sctp  "HB Sent 6:10.0.3.2"  ETV
vector 1136  CAIN.eNodeB.sctp  "RTO 6:10.0.3.2"  ETV
vector 1111  CAIN.eNodeB.sctp  "Slow Start Threshold 6:10.0.4.2"  ETV
vector 1112  CAIN.eNodeB.sctp  "Congestion Window 6:10.0.4.2"  ETV
vector 1113  CAIN.eNodeB.sctp  "Bandwidth 6:10.0.4.2"  ETV
vector 1116  CAIN.eNodeB.sctp  "HB Sent 6:10.0.4.2"  ETV
vector 1109  CAIN.eNodeB.sctp  "RTO 6:10.0.4.2"  ETV
vector 1165  CAIN.eNodeB.sctp  "Slow Start Threshold 6:10.0.5.2"  ETV
vector 1166  CAIN.eNodeB.sctp  "Congestion Window 6:10.0.5.2"  ETV
vector 1167  CAIN.eNodeB.sctp  "Bandwidth 6:10.0.5.2"  ETV
vector 1163  CAIN.eNodeB.sctp  "RTO 6:10.0.5.2"  ETV
vector 916  CAIN.eNodeB.sctp  "HB ACK Sent 1:10.0.5.2"  ETV
vector 917  CAIN.eNodeB.sctp  "HB Received 1:10.0.5.2"  ETV
vector 965  CAIN.eNodeB1.sctp  "HB ACK Sent 2:10.0.5.1"  ETV
vector 966  CAIN.eNodeB1.sctp  "HB Received 2:10.0.5.1"  ETV
vector 1219  CAIN.eNodeB.sctp  "Slow Start Threshold 1:10.0.3.2"  ETV
vector 1220  CAIN.eNodeB.sctp  "Congestion Window 1:10.0.3.2"  ETV
vector 1221  CAIN.eNodeB.sctp  "Bandwidth 1:10.0.3.2"  ETV
vector 1224  CAIN.eNodeB.sctp  "HB Sent 1:10.0.3.2"  ETV
vector 1217  CAIN.eNodeB.sctp  "RTO 1:10.0.3.2"  ETV
vector 1192  CAIN.eNodeB.sctp  "Slow Start Threshold 1:10.0.4.2"  ETV
vector 1193  CAIN.eNodeB.sctp  "Congestion Window 1:10.0.4.2"  ETV
vector 1194  CAIN.eNodeB.sctp  "Bandwidth 1:10.0.4.2"  ETV
vector 1197  CAIN.eNodeB.sctp  "HB Sent 1:10.0.4.2"  ETV
vector 1190  CAIN.eNodeB.sctp  "RTO 1:10.0.4.2"  ETV
vector 910  CAIN.eNodeB.sctp  "Slow Start Threshold 1:10.0.5.2"  ETV
vector 911  CAIN.eNodeB.sctp  "Congestion Window 1:10.0.5.2"  ETV
vector 912  CAIN.eNodeB.sctp  "Bandwidth 1:10.0.5.2"  ETV
vector 908  CAIN.eNodeB.sctp  "RTO 1:10.0.5.2"  ETV
vector 1273  CAIN.eNodeB1.sctp  "Slow Start Threshold 2:10.0.2.2"  ETV
vector 1274  CAIN.eNodeB1.sctp  "Congestion Window 2:10.0.2.2"  ETV
vector 1275  CAIN.eNodeB1.sctp  "Bandwidth 2:10.0.2.2"  ETV
vector 1278  CAIN.eNodeB1.sctp  "HB Sent 2:10.0.2.2"  ETV
vector 1271  CAIN.eNodeB1.sctp  "RTO 2:10.0.2.2"  ETV
vector 1246  CAIN.eNodeB1.sctp  "Slow Start Threshold 2:10.0.4.1"  ETV
vector 1247  CAIN.eNodeB1.sctp  "Congestion Window 2:10.0.4.1"  ETV
vector 1248  CAIN.eNodeB1.sctp  "Bandwidth 2:10.0.4.1"  ETV
vector 1251  CAIN.eNodeB1.sctp  "HB Sent 2:10.0.4.1"  ETV
vector 1244  CAIN.eNodeB1.sctp  "RTO 2:10.0.4.1"  ETV
vector 959  CAIN.eNodeB1.sctp  "Slow Start Threshold 2:10.0.5.1"  ETV
vector 960  CAIN.eNodeB1.sctp  "Congestion Window 2:10.0.5.1"  ETV
vector 961  CAIN.eNodeB1.sctp  "Bandwidth 2:10.0.5.1"  ETV
vector 957  CAIN.eNodeB1.sctp  "RTO 2:10.0.5.1"  ETV
vector 1173  CAIN.eNodeB.sctp  "HB ACK Received 6:10.0.5.2"  ETV
vector 1164  CAIN.eNodeB.sctp  "RTT 6:10.0.5.2"  ETV
vector 1070  CAIN.eNodeB1.sctp  "HB ACK Received 5:10.0.5.1"  ETV
vector 1061  CAIN.eNodeB1.sctp  "RTT 5:10.0.5.1"  ETV
vector 1171  CAIN.eNodeB.sctp  "HB ACK Sent 6:10.0.5.2"  ETV
vector 1172  CAIN.eNodeB.sctp  "HB Received 6:10.0.5.2"  ETV
vector 1068  CAIN.eNodeB1.sctp  "HB ACK Sent 5:10.0.5.1"  ETV
vector 1069  CAIN.eNodeB1.sctp  "HB Received 5:10.0.5.1"  ETV
vector 967  CAIN.eNodeB1.sctp  "HB ACK Received 2:10.0.5.1"  ETV
vector 958  CAIN.eNodeB1.sctp  "RTT 2:10.0.5.1"  ETV
vector 918  CAIN.eNodeB.sctp  "HB ACK Received 1:10.0.5.2"  ETV
vector 909  CAIN.eNodeB.sctp  "RTT 1:10.0.5.2"  ETV
vector 96  CAIN.eNodeB.nic.mac  receivedPacketFromLowerLayer:vector(packetBytes)  ETV
attr interpolationmode  none
attr source  receivedPacketFromLowerLayer
vector 1305  CAIN.eNodeB.sctp  "SendQueue of Association 6"  ETV
vector 1168  CAIN.eNodeB.sctp  "TSN Sent 6:10.0.5.2"  ETV
vector 1175  CAIN.eNodeB.sctp  "Outstanding Bytes 6:10.0.5.2"  ETV
vector 848  CAIN.eNodeB.sctp  "Outstanding Bytes 3:Total"  ETV
vector 1174  CAIN.eNodeB.sctp  "Queued Sent Bytes 6:10.0.5.2"  ETV
vector 847  CAIN.eNodeB.sctp  "Queued Sent Bytes 3:Total"  ETV
vector 963  CAIN.eNodeB1.sctp  "TSN Received 2:10.0.5.1"  ETV
vector 939  CAIN.eNodeB1.sctp  "Queued Received Bytes 2:Total"  ETV
vector 935  CAIN.eNodeB1.sctp  "Advertised Receiver Window 2"  ETV
vector 944  CAIN.eNodeB1.sctp  "Number of Total Gap Blocks Stored 2"  ETV
vector 945  CAIN.eNodeB1.sctp  "Number of Revokable Gap Blocks Stored 2"  ETV
vector 946  CAIN.eNodeB1.sctp  "Number of Non-Revokable Gap Blocks Stored 2"  ETV
vector 947  CAIN.eNodeB1.sctp  "Number of Duplicate TSNs Stored 2"  ETV
vector 951  CAIN.eNodeB1.sctp  "Length of SACK Sent 2"  ETV
vector 948  CAIN.eNodeB1.sctp  "Number of Revokable Gap Blocks Sent 2"  ETV
vector 949  CAIN.eNodeB1.sctp  "Number of Non-Revokable Gap Blocks Sent 2"  ETV
vector 950  CAIN.eNodeB1.sctp  "Number of Duplicate TSNs Sent 2"  ETV
vector 955  CAIN.eNodeB1.sctp  "End to End Delay of Association 2"  ETV
vector 199  CAIN.eNodeB1.x2App[0].client  rcvdPk:vector(packetBytes)  ETV
attr interpolationmode  none
attr source  rcvdPk
attr title  "packets received, vector(packetBytes)"
vector 1304  CAIN.eNodeB.sctp  "Number of Gap Blocks in Last SACK of Association 6"  ETV
vector 849  CAIN.eNodeB.sctp  "Number of Revokable Gap Blocks in SACK 3"  ETV
vector 850  CAIN.eNodeB.sctp  "Number of Non-Revokable Gap Blocks in SACK 3"  ETV
vector 1185  CAIN.eNodeB.sctp  "TSN Acked CumAck 6:10.0.5.2"  ETV
vector 1151  CAIN.eNodeB.sctp  "Number of Gap Acked Chunks in Last SACK 6:10.0.3.2"  ETV
vector 1152  CAIN.eNodeB.sctp  "Number of Non-Revokable Gap Acked Chunks in Last SACK 6:10.0.3.2"  ETV
vector 1153  CAIN.eNodeB.sctp  "Number of Gap Missed Chunks in Last SACK 6:10.0.3.2"  ETV
vector 1124  CAIN.eNodeB.sctp  "Number of Gap Acked Chunks in Last SACK 6:10.0.4.2"  ETV
vector 1125  CAIN.eNodeB.sctp  "Number of Non-Revokable Gap Acked Chunks in Last SACK 6:10.0.4.2"  ETV
vector 1126  CAIN.eNodeB.sctp  "Number of Gap Missed Chunks in Last SACK 6:10.0.4.2"  ETV
vector 1178  CAIN.eNodeB.sctp  "Number of Gap Acked Chunks in Last SACK 6:10.0.5.2"  ETV
vector 1179  CAIN.eNodeB.sctp  "Number of Non-Revokable Gap Acked Chunks in Last SACK 6:10.0.5.2"  ETV
vector 1180  CAIN.eNodeB.sctp  "Number of Gap Missed Chunks in Last SACK 6:10.0.5.2"  ETV
vector 859  CAIN.eNodeB.sctp  "Arwnd in Last SACK 3"  ETV
vector 1187  CAIN.eNodeB.sctp  "TSN PseudoCumAck 6:10.0.5.2"  ETV
vector 1188  CAIN.eNodeB.sctp  "TSN RTXPseudoCumAck 6:10.0.5.2"  ETV
vector 1181  CAIN.eNodeB.sctp  "Partial Bytes Acked 6:10.0.5.2"  ETV
vector 1333  CAIN.ueD2DTx[17].tcp  tcpRcvQueueBytes  ETV
vector 1320  CAIN.ueD2DTx[17].tcp  "advertised window"  ETV
vector 1319  CAIN.ueD2DTx[17].tcp  "receive window"  ETV
vector 1322  CAIN.ueD2DTx[17].tcp  "sent ack"  ETV
vector 749  CAIN.ueD2DTx[17].nic.pdcpRrc  receivedPacketFromUpperLayer:vector(packetBytes)  ETV
attr interpolationmode  none
attr source  receivedPacketFromUpperLayer
vector 752  CAIN.ueD2DTx[17].nic.pdcpRrc  sentPacketToLowerLayer:vector(packetBytes)  ETV
attr interpolationmode  none
attr source  sentPacketToLowerLayer
vector 753  CAIN.ueD2DTx[17].nic.mac  receivedPacketFromUpperLayer:vector(packetBytes)  ETV
attr interpolationmode  none
attr source  receivedPacketFromUpperLayer
vector 762  CAIN.ueD2DTx[17].nic.mac  CainMessageSent:vector  ETV
attr interpolationmode  none
attr title  "# of Sent CAIN message, vector"
vector 756  CAIN.ueD2DTx[17].nic.mac  sentPacketToLowerLayer:vector(packetBytes)  ETV
attr interpolationmode  none
attr source  sentPacketToLowerLayer
vector 786  CAIN.ueD2DTx[18].nic.mac  receivedPacketFromLowerLayer:vector(packetBytes)  ETV
attr interpolationmode  none
attr source  receivedPacketFromLowerLayer
vector 788  CAIN.ueD2DTx[18].nic.mac  sentPacketToLowerLayer:vector(packetBytes)  ETV
attr interpolationmode  none
attr source  sentPacketToLowerLayer
vector 111  CAIN.eNodeB.nic.mac  racpkt:vector  ETV
attr interpolationmode  none
attr title  "eNB received racpkt message, vector"
vector 112  CAIN.eNodeB.nic.mac  racDistanceSignal:vector  ETV
attr interpolationmode  none
attr title  "Rac distance to enb, vector"
vector 113  CAIN.eNodeB.nic.mac  racServedDevsSignal:vector  ETV
attr interpolationmode  none
attr title  "# of devices served on rac arriavall, vector"
vector 106  CAIN.eNodeB.nic.mac  DistanceSignal:vector  ETV
attr interpolationmode  none
attr title  "Distance to enb, vector"
vector 100  CAIN.eNodeB.nic.mac  CainMessage:vector  ETV
attr interpolationmode  none
attr title  "eNB received CAIN message, vector"
vector 98  CAIN.eNodeB.nic.mac  sentPacketToLowerLayer:vector(packetBytes)  ETV
attr interpolationmode  none
attr source  sentPacketToLowerLayer
vector 792  CAIN.ueD2DTx[18].nic.mac  DropedCainMessage:vector  ETV
attr interpolationmode  none
attr title  "Droped CAIN message due to RB not available, vector"
vector 1357  CAIN.ueD2DTx[8].tcp  tcpRcvQueueBytes  ETV
vector 1344  CAIN.ueD2DTx[8].tcp  "advertised window"  ETV
vector 1343  CAIN.ueD2DTx[8].tcp  "receive window"  ETV
vector 1346  CAIN.ueD2DTx[8].tcp  "sent ack"  ETV
vector 461  CAIN.ueD2DTx[8].nic.pdcpRrc  receivedPacketFromUpperLayer:vector(packetBytes)  ETV
attr interpolationmode  none
attr source  receivedPacketFromUpperLayer
vector 464  CAIN.ueD2DTx[8].nic.pdcpRrc  sentPacketToLowerLayer:vector(packetBytes)  ETV
attr interpolationmode  none
attr source  sentPacketToLowerLayer
vector 465  CAIN.ueD2DTx[8].nic.mac  receivedPacketFromUpperLayer:vector(packetBytes)  ETV
attr interpolationmode  none
attr source  receivedPacketFromUpperLayer
vector 468  CAIN.ueD2DTx[8].nic.mac  sentPacketToLowerLayer:vector(packetBytes)  ETV
attr interpolationmode  none
attr source  sentPacketToLowerLayer
vector 466  CAIN.ueD2DTx[8].nic.mac  receivedPacketFromLowerLayer:vector(packetBytes)  ETV
attr interpolationmode  none
attr source  receivedPacketFromLowerLayer
vector 1381  CAIN.ueD2DTx[9].tcp  tcpRcvQueueBytes  ETV
vector 1368  CAIN.ueD2DTx[9].tcp  "advertised window"  ETV
vector 1367  CAIN.ueD2DTx[9].tcp  "receive window"  ETV
vector 1370  CAIN.ueD2DTx[9].tcp  "sent ack"  ETV
vector 493  CAIN.ueD2DTx[9].nic.pdcpRrc  receivedPacketFromUpperLayer:vector(packetBytes)  ETV
attr interpolationmode  none
attr source  receivedPacketFromUpperLayer
vector 496  CAIN.ueD2DTx[9].nic.pdcpRrc  sentPacketToLowerLayer:vector(packetBytes)  ETV
attr interpolationmode  none
attr source  sentPacketToLowerLayer
vector 497  CAIN.ueD2DTx[9].nic.mac  receivedPacketFromUpperLayer:vector(packetBytes)  ETV
attr interpolationmode  none
attr source  receivedPacketFromUpperLayer
vector 506  CAIN.ueD2DTx[9].nic.mac  CainMessageSent:vector  ETV
attr interpolationmode  none
attr title  "# of Sent CAIN message, vector"
vector 500  CAIN.ueD2DTx[9].nic.mac  sentPacketToLowerLayer:vector(packetBytes)  ETV
attr interpolationmode  none
attr source  sentPacketToLowerLayer
vector 467  CAIN.ueD2DTx[8].nic.mac  sentPacketToUpperLayer:vector(packetBytes)  ETV
attr interpolationmode  none
attr source  sentPacketToUpperLayer
vector 115  CAIN.eNodeB.nic.phy  averageCqiUlvect:vector  ETV
attr source  averageCqiUlvect
attr title  "Average Cqi reported in UL, vector"
attr unit  cqi
vector 108  CAIN.eNodeB.nic.mac  ServedDevs:vector  ETV
attr interpolationmode  none
attr title  "# of devices served on cain forwarding, vector"
vector 99  CAIN.eNodeB.nic.mac  measuredItbs:vector  ETV
attr source  measuredItbs
attr title  "TBS index, vector"
attr unit  ""
vector 507  CAIN.ueD2DTx[9].nic.mac  CainHopMessageSent:vector  ETV
attr interpolationmode  none
attr title  "# of Sent CAIN hop message, vector"
vector 1405  CAIN.ueD2DTx[7].tcp  tcpRcvQueueBytes  ETV
vector 1392  CAIN.ueD2DTx[7].tcp  "advertised window"  ETV
vector 1391  CAIN.ueD2DTx[7].tcp  "receive window"  ETV
vector 1394  CAIN.ueD2DTx[7].tcp  "sent ack"  ETV
vector 429  CAIN.ueD2DTx[7].nic.pdcpRrc  receivedPacketFromUpperLayer:vector(packetBytes)  ETV
attr interpolationmode  none
attr source  receivedPacketFromUpperLayer
vector 432  CAIN.ueD2DTx[7].nic.pdcpRrc  sentPacketToLowerLayer:vector(packetBytes)  ETV
attr interpolationmode  none
attr source  sentPacketToLowerLayer
vector 433  CAIN.ueD2DTx[7].nic.mac  receivedPacketFromUpperLayer:vector(packetBytes)  ETV
attr interpolationmode  none
attr source  receivedPacketFromUpperLayer
vector 443  CAIN.ueD2DTx[7].nic.mac  CainHopMessageSent:vector  ETV
attr interpolationmode  none
attr title  "# of Sent CAIN hop message, vector"
vector 436  CAIN.ueD2DTx[7].nic.mac  sentPacketToLowerLayer:vector(packetBytes)  ETV
attr interpolationmode  none
attr source  sentPacketToLowerLayer
vector 242  CAIN.ueD2DTx[1].nic.mac  receivedPacketFromLowerLayer:vector(packetBytes)  ETV
attr interpolationmode  none
attr source  receivedPacketFromLowerLayer
vector 244  CAIN.ueD2DTx[1].nic.mac  sentPacketToLowerLayer:vector(packetBytes)  ETV
attr interpolationmode  none
attr source  sentPacketToLowerLayer
vector 210  CAIN.ueD2DTx[0].nic.mac  receivedPacketFromLowerLayer:vector(packetBytes)  ETV
attr interpolationmode  none
attr source  receivedPacketFromLowerLayer
vector 212  CAIN.ueD2DTx[0].nic.mac  sentPacketToLowerLayer:vector(packetBytes)  ETV
attr interpolationmode  none
attr source  sentPacketToLowerLayer
vector 1429  CAIN.ueD2DTx[5].tcp  tcpRcvQueueBytes  ETV
vector 1416  CAIN.ueD2DTx[5].tcp  "advertised window"  ETV
vector 1415  CAIN.ueD2DTx[5].tcp  "receive window"  ETV
vector 1418  CAIN.ueD2DTx[5].tcp  "sent ack"  ETV
vector 365  CAIN.ueD2DTx[5].nic.pdcpRrc  receivedPacketFromUpperLayer:vector(packetBytes)  ETV
attr interpolationmode  none
attr source  receivedPacketFromUpperLayer
vector 368  CAIN.ueD2DTx[5].nic.pdcpRrc  sentPacketToLowerLayer:vector(packetBytes)  ETV
attr interpolationmode  none
attr source  sentPacketToLowerLayer
vector 369  CAIN.ueD2DTx[5].nic.mac  receivedPacketFromUpperLayer:vector(packetBytes)  ETV
attr interpolationmode  none
attr source  receivedPacketFromUpperLayer
vector 379  CAIN.ueD2DTx[5].nic.mac  CainHopMessageSent:vector  ETV
attr interpolationmode  none
attr title  "# of Sent CAIN hop message, vector"
vector 372  CAIN.ueD2DTx[5].nic.mac  sentPacketToLowerLayer:vector(packetBytes)  ETV
attr interpolationmode  none
attr source  sentPacketToLowerLayer
vector 101  CAIN.eNodeB.nic.mac  CainHopMessage:vector  ETV
attr interpolationmode  none
attr title  "eNB received CAIN hop message, vector"
vector 1453  CAIN.ueD2DTx[10].tcp  tcpRcvQueueBytes  ETV
vector 1440  CAIN.ueD2DTx[10].tcp  "advertised window"  ETV
vector 1439  CAIN.ueD2DTx[10].tcp  "receive window"  ETV
vector 1442  CAIN.ueD2DTx[10].tcp  "sent ack"  ETV
vector 525  CAIN.ueD2DTx[10].nic.pdcpRrc  receivedPacketFromUpperLayer:vector(packetBytes)  ETV
attr interpolationmode  none
attr source  receivedPacketFromUpperLayer
vector 528  CAIN.ueD2DTx[10].nic.pdcpRrc  sentPacketToLowerLayer:vector(packetBytes)  ETV
attr interpolationmode  none
attr source  sentPacketToLowerLayer
vector 529  CAIN.ueD2DTx[10].nic.mac  receivedPacketFromUpperLayer:vector(packetBytes)  ETV
attr interpolationmode  none
attr source  receivedPacketFromUpperLayer
vector 1477  CAIN.ueD2DTx[13].tcp  tcpRcvQueueBytes  ETV
vector 1464  CAIN.ueD2DTx[13].tcp  "advertised window"  ETV
vector 1463  CAIN.ueD2DTx[13].tcp  "receive window"  ETV
vector 1466  CAIN.ueD2DTx[13].tcp  "sent ack"  ETV
vector 621  CAIN.ueD2DTx[13].nic.pdcpRrc  receivedPacketFromUpperLayer:vector(packetBytes)  ETV
attr interpolationmode  none
attr source  receivedPacketFromUpperLayer
vector 624  CAIN.ueD2DTx[13].nic.pdcpRrc  sentPacketToLowerLayer:vector(packetBytes)  ETV
attr interpolationmode  none
attr source  sentPacketToLowerLayer
vector 625  CAIN.ueD2DTx[13].nic.mac  receivedPacketFromUpperLayer:vector(packetBytes)  ETV
attr interpolationmode  none
attr source  receivedPacketFromUpperLayer
vector 539  CAIN.ueD2DTx[10].nic.mac  CainHopMessageSent:vector  ETV
attr interpolationmode  none
attr title  "# of Sent CAIN hop message, vector"
vector 532  CAIN.ueD2DTx[10].nic.mac  sentPacketToLowerLayer:vector(packetBytes)  ETV
attr interpolationmode  none
attr source  sentPacketToLowerLayer
vector 634  CAIN.ueD2DTx[13].nic.mac  CainMessageSent:vector  ETV
attr interpolationmode  none
attr title  "# of Sent CAIN message, vector"
vector 628  CAIN.ueD2DTx[13].nic.mac  sentPacketToLowerLayer:vector(packetBytes)  ETV
attr interpolationmode  none
attr source  sentPacketToLowerLayer
vector 658  CAIN.ueD2DTx[14].nic.mac  receivedPacketFromLowerLayer:vector(packetBytes)  ETV
attr interpolationmode  none
attr source  receivedPacketFromLowerLayer
vector 660  CAIN.ueD2DTx[14].nic.mac  sentPacketToLowerLayer:vector(packetBytes)  ETV
attr interpolationmode  none
attr source  sentPacketToLowerLayer
vector 217  CAIN.ueD2DTx[0].nic.mac  DropedHopMessage:vector  ETV
attr interpolationmode  none
attr title  "Droped Hop CAIN message due to RB not available, vector"
vector 1501  CAIN.ueD2DTx[0].tcp  tcpRcvQueueBytes  ETV
vector 1488  CAIN.ueD2DTx[0].tcp  "advertised window"  ETV
vector 1487  CAIN.ueD2DTx[0].tcp  "receive window"  ETV
vector 1490  CAIN.ueD2DTx[0].tcp  "sent ack"  ETV
vector 205  CAIN.ueD2DTx[0].nic.pdcpRrc  receivedPacketFromUpperLayer:vector(packetBytes)  ETV
attr interpolationmode  none
attr source  receivedPacketFromUpperLayer
vector 208  CAIN.ueD2DTx[0].nic.pdcpRrc  sentPacketToLowerLayer:vector(packetBytes)  ETV
attr interpolationmode  none
attr source  sentPacketToLowerLayer
vector 209  CAIN.ueD2DTx[0].nic.mac  receivedPacketFromUpperLayer:vector(packetBytes)  ETV
attr interpolationmode  none
attr source  receivedPacketFromUpperLayer
vector 97  CAIN.eNodeB.nic.mac  sentPacketToUpperLayer:vector(packetBytes)  ETV
attr interpolationmode  none
attr source  sentPacketToUpperLayer
vector 92  CAIN.eNodeB.nic.pdcpRrc  receivedPacketFromLowerLayer:vector(packetBytes)  ETV
attr interpolationmode  none
attr source  receivedPacketFromLowerLayer
vector 93  CAIN.eNodeB.nic.pdcpRrc  sentPacketToUpperLayer:vector(packetBytes)  ETV
attr interpolationmode  none
attr source  sentPacketToUpperLayer
vector 91  CAIN.eNodeB.nic.pdcpRrc  receivedPacketFromUpperLayer:vector(packetBytes)  ETV
attr interpolationmode  none
attr source  receivedPacketFromUpperLayer
vector 94  CAIN.eNodeB.nic.pdcpRrc  sentPacketToLowerLayer:vector(packetBytes)  ETV
attr interpolationmode  none
attr source  sentPacketToLowerLayer
vector 95  CAIN.eNodeB.nic.mac  receivedPacketFromUpperLayer:vector(packetBytes)  ETV
attr interpolationmode  none
attr source  receivedPacketFromUpperLayer
vector 793  CAIN.ueD2DTx[18].nic.mac  DropedHopMessage:vector  ETV
attr interpolationmode  none
attr title  "Droped Hop CAIN message due to RB not available, vector"
vector 228  CAIN.ueD2DTx[0].nic.phy  averageCqiDlvect:vector  ETV
attr source  averageCqiDlvect
attr title  "Average Cqi reported in DL, vector"
attr unit  cqi
vector 109  CAIN.eNodeB.nic.mac  ServedHopDevs:vector  ETV
attr interpolationmode  none
attr title  "# of devices served on hop forwarding, vector"
vector 211  CAIN.ueD2DTx[0].nic.mac  sentPacketToUpperLayer:vector(packetBytes)  ETV
attr interpolationmode  none
attr source  sentPacketToUpperLayer
vector 206  CAIN.ueD2DTx[0].nic.pdcpRrc  receivedPacketFromLowerLayer:vector(packetBytes)  ETV
attr interpolationmode  none
attr source  receivedPacketFromLowerLayer
vector 207  CAIN.ueD2DTx[0].nic.pdcpRrc  sentPacketToUpperLayer:vector(packetBytes)  ETV
attr interpolationmode  none
attr source  sentPacketToUpperLayer
vector 442  CAIN.ueD2DTx[7].nic.mac  CainMessageSent:vector  ETV
attr interpolationmode  none
attr title  "# of Sent CAIN message, vector"
vector 538  CAIN.ueD2DTx[10].nic.mac  CainMessageSent:vector  ETV
attr interpolationmode  none
attr title  "# of Sent CAIN message, vector"
vector 262  CAIN.ueD2DTx[1].nic.phy  averageCqiD2Dvect:vector  ETV
attr source  averageCqiD2Dvect
attr title  "Average Cqi reported in D2D, vector"
attr unit  cqi
vector 243  CAIN.ueD2DTx[1].nic.mac  sentPacketToUpperLayer:vector(packetBytes)  ETV
attr interpolationmode  none
attr source  sentPacketToUpperLayer
vector 238  CAIN.ueD2DTx[1].nic.pdcpRrc  receivedPacketFromLowerLayer:vector(packetBytes)  ETV
attr interpolationmode  none
attr source  receivedPacketFromLowerLayer
vector 239  CAIN.ueD2DTx[1].nic.pdcpRrc  sentPacketToUpperLayer:vector(packetBytes)  ETV
attr interpolationmode  none
attr source  sentPacketToUpperLayer
vector 1525  CAIN.ueD2DTx[16].tcp  tcpRcvQueueBytes  ETV
vector 1512  CAIN.ueD2DTx[16].tcp  "advertised window"  ETV
vector 1511  CAIN.ueD2DTx[16].tcp  "receive window"  ETV
vector 1514  CAIN.ueD2DTx[16].tcp  "sent ack"  ETV
vector 717  CAIN.ueD2DTx[16].nic.pdcpRrc  receivedPacketFromUpperLayer:vector(packetBytes)  ETV
attr interpolationmode  none
attr source  receivedPacketFromUpperLayer
vector 720  CAIN.ueD2DTx[16].nic.pdcpRrc  sentPacketToLowerLayer:vector(packetBytes)  ETV
attr interpolationmode  none
attr source  sentPacketToLowerLayer
vector 721  CAIN.ueD2DTx[16].nic.mac  receivedPacketFromUpperLayer:vector(packetBytes)  ETV
attr interpolationmode  none
attr source  receivedPacketFromUpperLayer
vector 730  CAIN.ueD2DTx[16].nic.mac  CainMessageSent:vector  ETV
attr interpolationmode  none
attr title  "# of Sent CAIN message, vector"
vector 724  CAIN.ueD2DTx[16].nic.mac  sentPacketToLowerLayer:vector(packetBytes)  ETV
attr interpolationmode  none
attr source  sentPacketToLowerLayer
vector 1301  CAIN.eNodeB1.sctp  "SendQueue of Association 5"  ETV
vector 1065  CAIN.eNodeB1.sctp  "TSN Sent 5:10.0.5.1"  ETV
vector 1072  CAIN.eNodeB1.sctp  "Outstanding Bytes 5:10.0.5.1"  ETV
vector 870  CAIN.eNodeB1.sctp  "Outstanding Bytes 4:Total"  ETV
vector 1071  CAIN.eNodeB1.sctp  "Queued Sent Bytes 5:10.0.5.1"  ETV
vector 869  CAIN.eNodeB1.sctp  "Queued Sent Bytes 4:Total"  ETV
vector 914  CAIN.eNodeB.sctp  "TSN Received 1:10.0.5.2"  ETV
vector 890  CAIN.eNodeB.sctp  "Queued Received Bytes 1:Total"  ETV
vector 886  CAIN.eNodeB.sctp  "Advertised Receiver Window 1"  ETV
vector 895  CAIN.eNodeB.sctp  "Number of Total Gap Blocks Stored 1"  ETV
vector 896  CAIN.eNodeB.sctp  "Number of Revokable Gap Blocks Stored 1"  ETV
vector 897  CAIN.eNodeB.sctp  "Number of Non-Revokable Gap Blocks Stored 1"  ETV
vector 898  CAIN.eNodeB.sctp  "Number of Duplicate TSNs Stored 1"  ETV
vector 902  CAIN.eNodeB.sctp  "Length of SACK Sent 1"  ETV
vector 899  CAIN.eNodeB.sctp  "Number of Revokable Gap Blocks Sent 1"  ETV
vector 900  CAIN.eNodeB.sctp  "Number of Non-Revokable Gap Blocks Sent 1"  ETV
vector 901  CAIN.eNodeB.sctp  "Number of Duplicate TSNs Sent 1"  ETV
vector 906  CAIN.eNodeB.sctp  "End to End Delay of Association 1"  ETV
vector 141  CAIN.eNodeB.x2App[0].client  rcvdPk:vector(packetBytes)  ETV
attr interpolationmode  none
attr source  rcvdPk
attr title  "packets received, vector(packetBytes)"
vector 1300  CAIN.eNodeB1.sctp  "Number of Gap Blocks in Last SACK of Association 5"  ETV
vector 871  CAIN.eNodeB1.sctp  "Number of Revokable Gap Blocks in SACK 4"  ETV
vector 872  CAIN.eNodeB1.sctp  "Number of Non-Revokable Gap Blocks in SACK 4"  ETV
vector 1082  CAIN.eNodeB1.sctp  "TSN Acked CumAck 5:10.0.5.1"  ETV
vector 1048  CAIN.eNodeB1.sctp  "Number of Gap Acked Chunks in Last SACK 5:10.0.2.2"  ETV
vector 1049  CAIN.eNodeB1.sctp  "Number of Non-Revokable Gap Acked Chunks in Last SACK 5:10.0.2.2"  ETV
vector 1050  CAIN.eNodeB1.sctp  "Number of Gap Missed Chunks in Last SACK 5:10.0.2.2"  ETV
vector 1021  CAIN.eNodeB1.sctp  "Number of Gap Acked Chunks in Last SACK 5:10.0.4.1"  ETV
vector 1022  CAIN.eNodeB1.sctp  "Number of Non-Revokable Gap Acked Chunks in Last SACK 5:10.0.4.1"  ETV
vector 1023  CAIN.eNodeB1.sctp  "Number of Gap Missed Chunks in Last SACK 5:10.0.4.1"  ETV
vector 1075  CAIN.eNodeB1.sctp  "Number of Gap Acked Chunks in Last SACK 5:10.0.5.1"  ETV
vector 1076  CAIN.eNodeB1.sctp  "Number of Non-Revokable Gap Acked Chunks in Last SACK 5:10.0.5.1"  ETV
vector 1077  CAIN.eNodeB1.sctp  "Number of Gap Missed Chunks in Last SACK 5:10.0.5.1"  ETV
vector 881  CAIN.eNodeB1.sctp  "Arwnd in Last SACK 4"  ETV
vector 1084  CAIN.eNodeB1.sctp  "TSN PseudoCumAck 5:10.0.5.1"  ETV
vector 1085  CAIN.eNodeB1.sctp  "TSN RTXPseudoCumAck 5:10.0.5.1"  ETV
vector 1078  CAIN.eNodeB1.sctp  "Partial Bytes Acked 5:10.0.5.1"  ETV
vector 1549  CAIN.ueD2DTx[18].tcp  tcpRcvQueueBytes  ETV
vector 1536  CAIN.ueD2DTx[18].tcp  "advertised window"  ETV
vector 1535  CAIN.ueD2DTx[18].tcp  "receive window"  ETV
vector 1538  CAIN.ueD2DTx[18].tcp  "sent ack"  ETV
vector 781  CAIN.ueD2DTx[18].nic.pdcpRrc  receivedPacketFromUpperLayer:vector(packetBytes)  ETV
attr interpolationmode  none
attr source  receivedPacketFromUpperLayer
vector 784  CAIN.ueD2DTx[18].nic.pdcpRrc  sentPacketToLowerLayer:vector(packetBytes)  ETV
attr interpolationmode  none
attr source  sentPacketToLowerLayer
vector 785  CAIN.ueD2DTx[18].nic.mac  receivedPacketFromUpperLayer:vector(packetBytes)  ETV
attr interpolationmode  none
attr source  receivedPacketFromUpperLayer
vector 1573  CAIN.ueD2DTx[14].tcp  tcpRcvQueueBytes  ETV
vector 1560  CAIN.ueD2DTx[14].tcp  "advertised window"  ETV
vector 1559  CAIN.ueD2DTx[14].tcp  "receive window"  ETV
vector 1562  CAIN.ueD2DTx[14].tcp  "sent ack"  ETV
vector 653  CAIN.ueD2DTx[14].nic.pdcpRrc  receivedPacketFromUpperLayer:vector(packetBytes)  ETV
attr interpolationmode  none
attr source  receivedPacketFromUpperLayer
vector 656  CAIN.ueD2DTx[14].nic.pdcpRrc  sentPacketToLowerLayer:vector(packetBytes)  ETV
attr interpolationmode  none
attr source  sentPacketToLowerLayer
vector 657  CAIN.ueD2DTx[14].nic.mac  receivedPacketFromUpperLayer:vector(packetBytes)  ETV
attr interpolationmode  none
attr source  receivedPacketFromUpperLayer
vector 666  CAIN.ueD2DTx[14].nic.mac  CainMessageSent:vector  ETV
attr interpolationmode  none
attr title  "# of Sent CAIN message, vector"
vector 154  CAIN.eNodeB1.nic.mac  receivedPacketFromLowerLayer:vector(packetBytes)  ETV
attr interpolationmode  none
attr source  receivedPacketFromLowerLayer
vector 169  CAIN.eNodeB1.nic.mac  racpkt:vector  ETV
attr interpolationmode  none
attr title  "eNB received racpkt message, vector"
vector 170  CAIN.eNodeB1.nic.mac  racDistanceSignal:vector  ETV
attr interpolationmode  none
attr title  "Rac distance to enb, vector"
vector 171  CAIN.eNodeB1.nic.mac  racServedDevsSignal:vector  ETV
attr interpolationmode  none
attr title  "# of devices served on rac arriavall, vector"
vector 156  CAIN.eNodeB1.nic.mac  sentPacketToLowerLayer:vector(packetBytes)  ETV
attr interpolationmode  none
attr source  sentPacketToLowerLayer
vector 1597  CAIN.ueD2DTx[11].tcp  tcpRcvQueueBytes  ETV
vector 1584  CAIN.ueD2DTx[11].tcp  "advertised window"  ETV
vector 1583  CAIN.ueD2DTx[11].tcp  "receive window"  ETV
vector 1586  CAIN.ueD2DTx[11].tcp  "sent ack"  ETV
vector 557  CAIN.ueD2DTx[11].nic.pdcpRrc  receivedPacketFromUpperLayer:vector(packetBytes)  ETV
attr interpolationmode  none
attr source  receivedPacketFromUpperLayer
vector 560  CAIN.ueD2DTx[11].nic.pdcpRrc  sentPacketToLowerLayer:vector(packetBytes)  ETV
attr interpolationmode  none
attr source  sentPacketToLowerLayer
vector 561  CAIN.ueD2DTx[11].nic.mac  receivedPacketFromUpperLayer:vector(packetBytes)  ETV
attr interpolationmode  none
attr source  receivedPacketFromUpperLayer
vector 570  CAIN.ueD2DTx[11].nic.mac  CainMessageSent:vector  ETV
attr interpolationmode  none
attr title  "# of Sent CAIN message, vector"
vector 564  CAIN.ueD2DTx[11].nic.mac  sentPacketToLowerLayer:vector(packetBytes)  ETV
attr interpolationmode  none
attr source  sentPacketToLowerLayer
vector 1621  CAIN.ueD2DTx[4].tcp  tcpRcvQueueBytes  ETV
vector 1608  CAIN.ueD2DTx[4].tcp  "advertised window"  ETV
vector 1607  CAIN.ueD2DTx[4].tcp  "receive window"  ETV
vector 1610  CAIN.ueD2DTx[4].tcp  "sent ack"  ETV
vector 333  CAIN.ueD2DTx[4].nic.pdcpRrc  receivedPacketFromUpperLayer:vector(packetBytes)  ETV
attr interpolationmode  none
attr source  receivedPacketFromUpperLayer
vector 336  CAIN.ueD2DTx[4].nic.pdcpRrc  sentPacketToLowerLayer:vector(packetBytes)  ETV
attr interpolationmode  none
attr source  sentPacketToLowerLayer
vector 337  CAIN.ueD2DTx[4].nic.mac  receivedPacketFromUpperLayer:vector(packetBytes)  ETV
attr interpolationmode  none
attr source  receivedPacketFromUpperLayer
vector 347  CAIN.ueD2DTx[4].nic.mac  CainHopMessageSent:vector  ETV
attr interpolationmode  none
attr title  "# of Sent CAIN hop message, vector"
vector 340  CAIN.ueD2DTx[4].nic.mac  sentPacketToLowerLayer:vector(packetBytes)  ETV
attr interpolationmode  none
attr source  sentPacketToLowerLayer
vector 370  CAIN.ueD2DTx[5].nic.mac  receivedPacketFromLowerLayer:vector(packetBytes)  ETV
attr interpolationmode  none
attr source  receivedPacketFromLowerLayer
vector 594  CAIN.ueD2DTx[12].nic.mac  receivedPacketFromLowerLayer:vector(packetBytes)  ETV
attr interpolationmode  none
attr source  receivedPacketFromLowerLayer
vector 596  CAIN.ueD2DTx[12].nic.mac  sentPacketToLowerLayer:vector(packetBytes)  ETV
attr interpolationmode  none
attr source  sentPacketToLowerLayer
vector 1645  CAIN.ueD2DTx[12].tcp  tcpRcvQueueBytes  ETV
vector 1632  CAIN.ueD2DTx[12].tcp  "advertised window"  ETV
vector 1631  CAIN.ueD2DTx[12].tcp  "receive window"  ETV
vector 1634  CAIN.ueD2DTx[12].tcp  "sent ack"  ETV
vector 589  CAIN.ueD2DTx[12].nic.pdcpRrc  receivedPacketFromUpperLayer:vector(packetBytes)  ETV
attr interpolationmode  none
attr source  receivedPacketFromUpperLayer
vector 592  CAIN.ueD2DTx[12].nic.pdcpRrc  sentPacketToLowerLayer:vector(packetBytes)  ETV
attr interpolationmode  none
attr source  sentPacketToLowerLayer
vector 593  CAIN.ueD2DTx[12].nic.mac  receivedPacketFromUpperLayer:vector(packetBytes)  ETV
attr interpolationmode  none
attr source  receivedPacketFromUpperLayer
vector 1669  CAIN.ueD2DTx[6].tcp  tcpRcvQueueBytes  ETV
vector 1656  CAIN.ueD2DTx[6].tcp  "advertised window"  ETV
vector 1655  CAIN.ueD2DTx[6].tcp  "receive window"  ETV
vector 1658  CAIN.ueD2DTx[6].tcp  "sent ack"  ETV
vector 397  CAIN.ueD2DTx[6].nic.pdcpRrc  receivedPacketFromUpperLayer:vector(packetBytes)  ETV
attr interpolationmode  none
attr source  receivedPacketFromUpperLayer
vector 400  CAIN.ueD2DTx[6].nic.pdcpRrc  sentPacketToLowerLayer:vector(packetBytes)  ETV
attr interpolationmode  none
attr source  sentPacketToLowerLayer
vector 401  CAIN.ueD2DTx[6].nic.mac  receivedPacketFromUpperLayer:vector(packetBytes)  ETV
attr interpolationmode  none
attr source  receivedPacketFromUpperLayer
vector 410  CAIN.ueD2DTx[6].nic.mac  CainMessageSent:vector  ETV
attr interpolationmode  none
attr title  "# of Sent CAIN message, vector"
vector 404  CAIN.ueD2DTx[6].nic.mac  sentPacketToLowerLayer:vector(packetBytes)  ETV
attr interpolationmode  none
attr source  sentPacketToLowerLayer
vector 1693  CAIN.ueD2DTx[1].tcp  tcpRcvQueueBytes  ETV
vector 1680  CAIN.ueD2DTx[1].tcp  "advertised window"  ETV
vector 1679  CAIN.ueD2DTx[1].tcp  "receive window"  ETV
vector 1682  CAIN.ueD2DTx[1].tcp  "sent ack"  ETV
vector 237  CAIN.ueD2DTx[1].nic.pdcpRrc  receivedPacketFromUpperLayer:vector(packetBytes)  ETV
attr interpolationmode  none
attr source  receivedPacketFromUpperLayer
vector 240  CAIN.ueD2DTx[1].nic.pdcpRrc  sentPacketToLowerLayer:vector(packetBytes)  ETV
attr interpolationmode  none
attr source  sentPacketToLowerLayer
vector 241  CAIN.ueD2DTx[1].nic.mac  receivedPacketFromUpperLayer:vector(packetBytes)  ETV
attr interpolationmode  none
attr source  receivedPacketFromUpperLayer
vector 250  CAIN.ueD2DTx[1].nic.mac  CainMessageSent:vector  ETV
attr interpolationmode  none
attr title  "# of Sent CAIN message, vector"
vector 1717  CAIN.ueD2DTx[15].tcp  tcpRcvQueueBytes  ETV
vector 1704  CAIN.ueD2DTx[15].tcp  "advertised window"  ETV
vector 1703  CAIN.ueD2DTx[15].tcp  "receive window"  ETV
vector 1706  CAIN.ueD2DTx[15].tcp  "sent ack"  ETV
vector 685  CAIN.ueD2DTx[15].nic.pdcpRrc  receivedPacketFromUpperLayer:vector(packetBytes)  ETV
attr interpolationmode  none
attr source  receivedPacketFromUpperLayer
vector 688  CAIN.ueD2DTx[15].nic.pdcpRrc  sentPacketToLowerLayer:vector(packetBytes)  ETV
attr interpolationmode  none
attr source  sentPacketToLowerLayer
vector 689  CAIN.ueD2DTx[15].nic.mac  receivedPacketFromUpperLayer:vector(packetBytes)  ETV
attr interpolationmode  none
attr source  receivedPacketFromUpperLayer
vector 692  CAIN.ueD2DTx[15].nic.mac  sentPacketToLowerLayer:vector(packetBytes)  ETV
attr interpolationmode  none
attr source  sentPacketToLowerLayer
vector 690  CAIN.ueD2DTx[15].nic.mac  receivedPacketFromLowerLayer:vector(packetBytes)  ETV
attr interpolationmode  none
attr source  receivedPacketFromLowerLayer
vector 1741  CAIN.ueD2DTx[2].tcp  tcpRcvQueueBytes  ETV
vector 1728  CAIN.ueD2DTx[2].tcp  "advertised window"  ETV
vector 1727  CAIN.ueD2DTx[2].tcp  "receive window"  ETV
vector 1730  CAIN.ueD2DTx[2].tcp  "sent ack"  ETV
vector 269  CAIN.ueD2DTx[2].nic.pdcpRrc  receivedPacketFromUpperLayer:vector(packetBytes)  ETV
attr interpolationmode  none
attr source  receivedPacketFromUpperLayer
vector 272  CAIN.ueD2DTx[2].nic.pdcpRrc  sentPacketToLowerLayer:vector(packetBytes)  ETV
attr interpolationmode  none
attr source  sentPacketToLowerLayer
vector 273  CAIN.ueD2DTx[2].nic.mac  receivedPacketFromUpperLayer:vector(packetBytes)  ETV
attr interpolationmode  none
attr source  receivedPacketFromUpperLayer
vector 1765  CAIN.ueD2DTx[19].tcp  tcpRcvQueueBytes  ETV
vector 1752  CAIN.ueD2DTx[19].tcp  "advertised window"  ETV
vector 1751  CAIN.ueD2DTx[19].tcp  "receive window"  ETV
vector 1754  CAIN.ueD2DTx[19].tcp  "sent ack"  ETV
vector 813  CAIN.ueD2DTx[19].nic.pdcpRrc  receivedPacketFromUpperLayer:vector(packetBytes)  ETV
attr interpolationmode  none
attr source  receivedPacketFromUpperLayer
vector 816  CAIN.ueD2DTx[19].nic.pdcpRrc  sentPacketToLowerLayer:vector(packetBytes)  ETV
attr interpolationmode  none
attr source  sentPacketToLowerLayer
vector 817  CAIN.ueD2DTx[19].nic.mac  receivedPacketFromUpperLayer:vector(packetBytes)  ETV
attr interpolationmode  none
attr source  receivedPacketFromUpperLayer
vector 282  CAIN.ueD2DTx[2].nic.mac  CainMessageSent:vector  ETV
attr interpolationmode  none
attr title  "# of Sent CAIN message, vector"
vector 276  CAIN.ueD2DTx[2].nic.mac  sentPacketToLowerLayer:vector(packetBytes)  ETV
attr interpolationmode  none
attr source  sentPacketToLowerLayer
vector 827  CAIN.ueD2DTx[19].nic.mac  CainHopMessageSent:vector  ETV
attr interpolationmode  none
attr title  "# of Sent CAIN hop message, vector"
vector 820  CAIN.ueD2DTx[19].nic.mac  sentPacketToLowerLayer:vector(packetBytes)  ETV
attr interpolationmode  none
attr source  sentPacketToLowerLayer
vector 1789  CAIN.ueD2DTx[3].tcp  tcpRcvQueueBytes  ETV
vector 1776  CAIN.ueD2DTx[3].tcp  "advertised window"  ETV
vector 1775  CAIN.ueD2DTx[3].tcp  "receive window"  ETV
vector 1778  CAIN.ueD2DTx[3].tcp  "sent ack"  ETV
vector 301  CAIN.ueD2DTx[3].nic.pdcpRrc  receivedPacketFromUpperLayer:vector(packetBytes)  ETV
attr interpolationmode  none
attr source  receivedPacketFromUpperLayer
vector 304  CAIN.ueD2DTx[3].nic.pdcpRrc  sentPacketToLowerLayer:vector(packetBytes)  ETV
attr interpolationmode  none
attr source  sentPacketToLowerLayer
vector 305  CAIN.ueD2DTx[3].nic.mac  receivedPacketFromUpperLayer:vector(packetBytes)  ETV
attr interpolationmode  none
attr source  receivedPacketFromUpperLayer
vector 754  CAIN.ueD2DTx[17].nic.mac  receivedPacketFromLowerLayer:vector(packetBytes)  ETV
attr interpolationmode  none
attr source  receivedPacketFromLowerLayer
vector 755  CAIN.ueD2DTx[17].nic.mac  sentPacketToUpperLayer:vector(packetBytes)  ETV
attr interpolationmode  none
attr source  sentPacketToUpperLayer
vector 173  CAIN.eNodeB1.nic.phy  averageCqiUlvect:vector  ETV
attr source  averageCqiUlvect
attr title  "Average Cqi reported in UL, vector"
attr unit  cqi
vector 155  CAIN.eNodeB1.nic.mac  sentPacketToUpperLayer:vector(packetBytes)  ETV
attr interpolationmode  none
attr source  sentPacketToUpperLayer
vector 157  CAIN.eNodeB1.nic.mac  measuredItbs:vector  ETV
attr source  measuredItbs
attr title  "TBS index, vector"
attr unit  ""
vector 150  CAIN.eNodeB1.nic.pdcpRrc  receivedPacketFromLowerLayer:vector(packetBytes)  ETV
attr interpolationmode  none
attr source  receivedPacketFromLowerLayer
vector 151  CAIN.eNodeB1.nic.pdcpRrc  sentPacketToUpperLayer:vector(packetBytes)  ETV
attr interpolationmode  none
attr source  sentPacketToUpperLayer
vector 144  CAIN.eNodeB1.udp  sentPk:vector(packetBytes)  ETV
attr interpolationmode  none
attr source  sentPk
attr title  "packets sent, vector(packetBytes)"
vector 175  CAIN.eNodeB1.pppIf.queue  rcvdPk:vector(packetBytes)  ETV
attr interpolationmode  none
attr title  "received packets, vector(packetBytes)"
vector 177  CAIN.eNodeB1.pppIf.queue  queueingTime:vector  ETV
attr interpolationmode  none
attr title  "queueing time, vector"
vector 184  CAIN.eNodeB1.pppIf.ppp  rcvdPkFromHL:vector(packetBytes)  ETV
attr interpolationmode  none
attr source  packetReceivedFromUpper
attr title  "packets received from higher layer, vector(packetBytes)"
vector 180  CAIN.eNodeB1.pppIf.ppp  txPk:vector(packetBytes)  ETV
attr interpolationmode  none
attr source  packetSentToLower
attr title  "packets transmitted, vector(packetBytes)"
vector 70  CAIN.pgw.ppp[1].ppp  rxPkOk:vector(packetBytes)  ETV
attr interpolationmode  none
attr source  rxPkOk
attr title  "packets received OK, vector(packetBytes)"
vector 74  CAIN.pgw.ppp[1].ppp  passedUpPk:vector(packetBytes)  ETV
attr interpolationmode  none
attr source  packetSentToUpper
attr title  "packets passed to higher layer, vector(packetBytes)"
vector 44  CAIN.pgw.udp  rcvdPk:vector(packetBytes)  ETV
attr interpolationmode  none
attr source  rcvdPk
attr title  "packets received, vector(packetBytes)"
vector 45  CAIN.pgw.udp  passedUpPk:vector(count)  ETV
attr interpolationmode  none
attr title  "packets passed up, vector(count)"
vector 43  CAIN.pgw.udp  sentPk:vector(packetBytes)  ETV
attr interpolationmode  none
attr source  sentPk
attr title  "packets sent, vector(packetBytes)"
vector 53  CAIN.pgw.ppp[0].queue  rcvdPk:vector(packetBytes)  ETV
attr interpolationmode  none
attr title  "received packets, vector(packetBytes)"
vector 55  CAIN.pgw.ppp[0].queue  queueingTime:vector  ETV
attr interpolationmode  none
attr title  "queueing time, vector"
vector 62  CAIN.pgw.ppp[0].ppp  rcvdPkFromHL:vector(packetBytes)  ETV
attr interpolationmode  none
attr source  packetReceivedFromUpper
attr title  "packets received from higher layer, vector(packetBytes)"
vector 58  CAIN.pgw.ppp[0].ppp  txPk:vector(packetBytes)  ETV
attr interpolationmode  none
attr source  packetSentToLower
attr title  "packets transmitted, vector(packetBytes)"
vector 123  CAIN.eNodeB.pppIf.ppp  rxPkOk:vector(packetBytes)  ETV
attr interpolationmode  none
attr source  rxPkOk
attr title  "packets received OK, vector(packetBytes)"
vector 127  CAIN.eNodeB.pppIf.ppp  passedUpPk:vector(packetBytes)  ETV
attr interpolationmode  none
attr source  packetSentToUpper
attr title  "packets passed to higher layer, vector(packetBytes)"
vector 87  CAIN.eNodeB.udp  rcvdPk:vector(packetBytes)  ETV
attr interpolationmode  none
attr source  rcvdPk
attr title  "packets received, vector(packetBytes)"
vector 88  CAIN.eNodeB.udp  passedUpPk:vector(count)  ETV
attr interpolationmode  none
attr title  "packets passed up, vector(count)"
vector 571  CAIN.ueD2DTx[11].nic.mac  CainHopMessageSent:vector  ETV
attr interpolationmode  none
attr title  "# of Sent CAIN hop message, vector"
vector 411  CAIN.ueD2DTx[6].nic.mac  CainHopMessageSent:vector  ETV
attr interpolationmode  none
attr title  "# of Sent CAIN hop message, vector"
vector 378  CAIN.ueD2DTx[5].nic.mac  CainMessageSent:vector  ETV
attr interpolationmode  none
attr title  "# of Sent CAIN message, vector"
vector 626  CAIN.ueD2DTx[13].nic.mac  receivedPacketFromLowerLayer:vector(packetBytes)  ETV
attr interpolationmode  none
attr source  receivedPacketFromLowerLayer
vector 627  CAIN.ueD2DTx[13].nic.mac  sentPacketToUpperLayer:vector(packetBytes)  ETV
attr interpolationmode  none
attr source  sentPacketToUpperLayer
vector 251  CAIN.ueD2DTx[1].nic.mac  CainHopMessageSent:vector  ETV
attr interpolationmode  none
attr title  "# of Sent CAIN hop message, vector"
vector 283  CAIN.ueD2DTx[2].nic.mac  CainHopMessageSent:vector  ETV
attr interpolationmode  none
attr title  "# of Sent CAIN hop message, vector"
vector 722  CAIN.ueD2DTx[16].nic.mac  receivedPacketFromLowerLayer:vector(packetBytes)  ETV
attr interpolationmode  none
attr source  receivedPacketFromLowerLayer
vector 723  CAIN.ueD2DTx[16].nic.mac  sentPacketToUpperLayer:vector(packetBytes)  ETV
attr interpolationmode  none
attr source  sentPacketToUpperLayer
vector 787  CAIN.ueD2DTx[18].nic.mac  sentPacketToUpperLayer:vector(packetBytes)  ETV
attr interpolationmode  none
attr source  sentPacketToUpperLayer
vector 659  CAIN.ueD2DTx[14].nic.mac  sentPacketToUpperLayer:vector(packetBytes)  ETV
attr interpolationmode  none
attr source  sentPacketToUpperLayer
vector 595  CAIN.ueD2DTx[12].nic.mac  sentPacketToUpperLayer:vector(packetBytes)  ETV
attr interpolationmode  none
attr source  sentPacketToUpperLayer
vector 691  CAIN.ueD2DTx[15].nic.mac  sentPacketToUpperLayer:vector(packetBytes)  ETV
attr interpolationmode  none
attr source  sentPacketToUpperLayer
vector 315  CAIN.ueD2DTx[3].nic.mac  CainHopMessageSent:vector  ETV
attr interpolationmode  none
attr title  "# of Sent CAIN hop message, vector"
vector 308  CAIN.ueD2DTx[3].nic.mac  sentPacketToLowerLayer:vector(packetBytes)  ETV
attr interpolationmode  none
attr source  sentPacketToLowerLayer
vector 230  CAIN.ueD2DTx[0].nic.phy  averageCqiD2Dvect:vector  ETV
attr source  averageCqiD2Dvect
attr title  "Average Cqi reported in D2D, vector"
attr unit  cqi
8	56933 8 0 0 0 0 1 0 0 0 0
9	56941 8 0 0 0 0 1 0 0 0 0
24	56949 9 0 0 0 0 1 0 0 0 0
25	56958 9 0 0 0 0 1 0 0 0 0
35	56967 9 0 0 0 0 1 0 0 0 0
36	56976 9 0 0 0 0 1 0 0 0 0
43	56985 182 184836 190300 3.0220001132 3.0980001132 7 52 52 364 18928
44	57167 182 184834 190298 3.0220001132 3.0980001132 7 52 52 364 18928
45	57349 175 184834 190298 3.0220001132 3.0980001132 7 1 7 28 140
53	57524 182 184838 190302 3.0220001132 3.0980001132 7 72 72 504 36288
55	57706 175 184838 190302 3.0220001132 3.0980001132 7 0 0 0 0
56	57881 9 0 0 0 0 1 0 0 0 0
57	57890 359 0 190304 0 3.0980001764 15 0 1 7 7
58	58249 182 184839 190303 3.0220001132 3.0980001132 7 79 79 553 43687
62	58431 182 184839 190303 3.0220001132 3.0980001132 7 72 72 504 36288
67	58613 9 0 0 0 0 1 0 0 0 0
68	58622 9 0 0 0 0 1 0 0 0 0
70	58631 182 184832 190296 3.0220001132 3.0980001132 7 79 79 553 43687
74	58813 182 184832 190296 3.0220001132 3.0980001132 7 72 72 504 36288
78	58995 9 0 0 0 0 1 0 0 0 0
79	59004 9 0 0 0 0 1 0 0 0 0
87	59013 182 184843 190307 3.0220002264 3.0980002264 7 52 52 364 18928
88	59195 175 184843 190307 3.0220002264 3.0980002264 7 1 7 28 140
91	59370 218 2057 190310 0.035 3.0980002264 9 44 44 396 17424
92	59588 36 2052 185708 0.035 3.035 2 45 45 90 4050
93	59624 36 2052 185708 0.035 3.035 2 44 44 88 3872
94	59660 218 2057 190310 0.035 3.0980002264 9 45 45 405 18225
95	59878 386 2060 190325 0.035 3.099 18 45 47 828 38106
96	60264 773199 382 575744 0.002 9.026 43777 0 0 0 0
97	833463 195 2048 190321 0.035 3.099 11 0 47 94 4418
98	833658 253502 1089 575744 0.016 9.026 14403 0 0 0 0
99	1087160 295 1675 190321 0.029 3.099 17 0 9 9 81
100	1087455 272175 1089 575744 0.016 9.026 12550 1 12550 78757525 658964211675
101	1359630 38325 1942 575423 0.032 9.022 1808 1 1808 1635336 1971670104
106	1397955 594086 1089 575744 0.016 9.026 28688 514 749 14825554 7663045718
108	1992041 248227 1674 575569 0.028 9.024 12529 2 12 146059 1706267
109	2240268 35101 2344 575571 0.038 9.024 1801 6 14 21588 273088
111	2275369 640553 1089 575744 0.016 9.026 28697 1 28697 411773253 7877908618645
112	2915922 594265 1089 575744 0.016 9.026 28697 192 688 8021184 2378420512
113	3510187 536871 1089 575744 0.016 9.026 28697 0 0 0 0
115	4047058 199 1602 575732 0.026 9.026 11 2 2 22 44
120	4047257 10 0 0 0 0 1 0 0 0 0
121	4047267 10 0 0 0 0 1 0 0 0 0
123	4047277 189 184841 190305 3.0220002264 3.0980002264 7 79 79 553 43687
127	4047466 189 184841 190305 3.0220002264 3.0980002264 7 72 72 504 36288
128	4047655 421 139 28819 0 0.4570018716 18 36 1632 2824 2785120
130	4048076 438 139 28819 0 0.4570018716 18 0 8.8e-08 3.088e-07 1.946112e-14
131	4048514 280 0 258 0 0.0000007124 13 0 2 10 14
132	4048794 828 0 28821 0 0.4570019156 37 0 1 18 18
133	4049622 423 141 28820 0 0.4570018716 18 43 1639 2950 2825538
134	4050045 442 146 25764 0.0000001228 0.4070019656 18 43 1639 2950 2825538
137	4050487 423 141 28820 0 0.4570018716 18 36 1632 2824 2785120
138	4050910 442 146 25764 0.0000001228 0.4070019656 18 36 1632 2824 2785120
141	4051352 2240 3522 16478 0.0570000972 0.2570018716 90 2 2 180 360
144	4053592 139 184779 190192 3.022 3.098 7 52 52 364 18928
150	4053731 139 184775 190188 3.022 3.098 7 45 45 315 14175
151	4053870 139 184775 190188 3.022 3.098 7 44 44 308 13552
154	4054009 278369 3767 575725 0.061 9.026 14974 0 0 0 0
155	4332378 139 184770 190183 3.022 3.098 7 47 47 329 15463
156	4332517 788 3767 575375 0.061 9.022 42 0 0 0 0
157	4333305 177 184770 575375 3.022 9.022 9 0 26 181 4681
169	4333482 244 3767 575295 0.061 9.02 13 1 13 91 819
170	4333726 264 3767 575295 0.061 9.02 13 39 571 4627 1987015
171	4333990 240 3767 575295 0.061 9.02 13 0 0 0 0
173	4334230 217 184607 575562 3.019 9.024 11 2 15 125 1783
175	4334447 139 184781 190194 3.022 3.098 7 72 72 504 36288
177	4334586 132 184781 190194 3.022 3.098 7 0 0 0 0
178	4334718 10 0 0 0 0 1 0 0 0 0
179	4334728 324 0 190295 0 3.0980000632 15 0 1 7 7
180	4335052 139 184782 190195 3.022 3.098 7 79 79 553 43687
184	4335191 139 184782 190195 3.022 3.098 7 72 72 504 36288
186	4335330 422 140 25761 0 0.4070018716 18 36 1632 2824 2785120
188	4335752 439 140 25761 0 0.4070018716 18 0 8.8e-08 3.088e-07 1.946112e-14
189	4336191 280 0 257 0 0.0000007124 13 0 2 10 14
190	4336471 830 0 25763 0 0.4070019156 37 0 1 18 18
191	4337301 424 142 25762 0 0.4070018716 18 43 1639 2950 2825538
192	4337725 441 145 28822 0.0000001228 0.4570019656 18 43 1639 2950 2825538
195	4338166 424 142 25762 0 0.4070018716 18 36 1632 2824 2785120
196	4338590 441 145 28822 0.0000001228 0.4570019656 18 36 1632 2824 2785120
199	4339031 2230 652 13053 0.0070000972 0.2070018716 90 2 2 180 360
205	4341261 56 2002 185645 0.033984720812 3.033984720812 2 44 44 88 3872
206	4341317 176 2396 190594 0.04 3.103 9 45 45 405 18225
207	4341493 176 2396 190594 0.04 3.103 9 44 44 396 17424
208	4341669 56 2002 185645 0.033984720812 3.033984720812 2 45 45 90 4050
209	4341725 94 2005 186407 0.033984720812 3.044 4 45 47 184 8468
210	4341819 201841 1866 575750 0.031 9.026 10780 0 0 0 0
211	4543660 212 2392 190590 0.04 3.103 11 0 47 423 19881
212	4543872 201645 1866 575750 0.031 9.026 10769 0 0 0 0
217	4745517 34 1997 2047 0.033 0.034 2 1 2 3 5
228	4745551 166 2261 190425 0.037 3.1 9 2 6 22 68
230	4745717 20 575640 575640 9.025 9.025 1 13 13 13 169
231	4745737 10 0 0 0 0 1 1 1 1 1
237	4745747 56 5375 189450 0.087465974346 3.087465974346 2 44 44 88 3872
238	4745803 38 2876 186686 0.048 3.048 2 45 45 90 4050
239	4745841 38 2876 186686 0.048 3.048 2 44 44 88 3872
240	4745879 56 5375 189450 0.087465974346 3.087465974346 2 45 45 90 4050
241	4745935 56 5378 189453 0.087465974346 3.087465974346 2 45 45 90 4050
242	4745991 33012 1773 575638 0.03 9.025 1808 0 0 0 0
243	4779003 38 2872 186681 0.048 3.048 2 47 47 94 4418
244	4779041 66660 1773 575638 0.03 9.025 3596 0 0 0 0
250	4845701 37861 5382 575435 0.088 9.023 1786 1 1786 1595791 1900587081
251	4883562 38 186347 186681 3.043 3.048 2 1 2 3 5
262	4883600 36 2757 186542 0.045 3.045 2 2 2 4 8
263	4883636 10 0 0 0 0 1 1 1 1 1
269	4883646 56 5765 189883 0.093058322349 3.093058322349 2 44 44 88 3872
272	4883702 56 5765 189883 0.093058322349 3.093058322349 2 45 45 90 4050
273	4883758 56 5768 189886 0.093058322349 3.093058322349 2 45 45 90 4050
276	4883814 33632 5781 575518 0.094 9.024 1787 0 0 0 0
282	4917446 37864 5781 575518 0.094 9.024 1786 1 1786 1595791 1900587081
283	4955310 19 186757 186757 3.049 3.049 1 1 1 1 1
295	4955329 10 0 0 0 0 1 1 1 1 1
301	4955339 56 6098 190317 0.098821217397 3.098821217397 2 44 44 88 3872
304	4955395 56 6098 190317 0.098821217397 3.098821217397 2 45 45 90 4050
305	4955451 56 6101 190320 0.098821217397 3.098821217397 2 45 45 90 4050
308	4955507 22534 190331 575520 3.099 9.024 1186 0 0 0 0
315	4978041 24985 190331 575520 3.099 9.024 1186 1 1186 703891 556777781
327	5003026 163 0 6504 0 0.105 10 1 2 19 37
333	5003189 56 4675 188701 0.076266208328 3.076266208328 2 44 44 88 3872
336	5003245 56 4675 188701 0.076266208328 3.076266208328 2 45 45 90 4050
337	5003301 56 4678 188704 0.076266208328 3.076266208328 2 45 45 90 4050
340	5003357 22627 4685 575382 0.077 9.022 1191 0 0 0 0
347	5025984 25093 4685 575382 0.077 9.022 1191 1 1191 709836 563846396
359	5051077 163 0 6505 0 0.105 10 1 2 19 37
365	5051240 56 1875 185471 0.031389955268 3.031389955268 2 44 44 88 3872
368	5051296 56 1875 185471 0.031389955268 3.031389955268 2 45 45 90 4050
369	5051352 56 1878 185474 0.031389955268 3.031389955268 2 45 45 90 4050
370	5051408 44458 4765 575629 0.078 9.025 2375 0 0 0 0
372	5095866 67324 1886 575629 0.032 9.025 3579 0 0 0 0
378	5163190 25227 185482 575384 3.032 9.022 1197 1 1197 717003 572407395
379	5188417 123 1886 190114 0.032 3.097 7 1 7 28 140
391	5188540 163 0 6506 0 0.105 10 1 2 19 37
397	5188703 56 5077 189144 0.083256449993 3.083256449993 2 44 44 88 3872
400	5188759 56 5077 189144 0.083256449993 3.083256449993 2 45 45 90 4050
401	5188815 56 5080 189147 0.083256449993 3.083256449993 2 45 45 90 4050
404	5188871 33666 5109 575524 0.084 9.024 1789 0 0 0 0
410	5222537 37882 5109 575524 0.084 9.024 1787 1 1787 1597578 1903780450
411	5260419 38 185269 185661 3.029 3.034 2 1 2 3 5
423	5260457 10 0 0 0 0 1 1 1 1 1
429	5260467 56 1711 185308 0.029577355213 3.029577355213 2 44 44 88 3872
432	5260523 56 1711 185308 0.029577355213 3.029577355213 2 45 45 90 4050
433	5260579 56 1714 185311 0.029577355213 3.029577355213 2 45 45 90 4050
436	5260635 32845 1744 575601 0.03 9.025 1800 0 0 0 0
442	5293480 37056 2406 575601 0.04 9.025 1796 1 1796 1613706 1932681886
443	5330536 70 1744 185726 0.03 3.035 4 1 4 10 30
455	5330606 10 0 0 0 0 1 1 1 1 1
461	5330616 85 1305 575313 0.020429364846 9.020429364846 3 44 44 132 5808
464	5330701 85 1305 575313 0.020429364846 9.020429364846 3 45 45 135 6075
465	5330786 212 1308 575607 0.020429364846 9.025 10 0 47 229 10493
466	5330998 335556 1398 575756 0.023 9.026 17945 0 0 0 0
467	5666554 125 1517 575603 0.025 9.025 7 0 0 0 0
468	5666679 335433 1319 575756 0.021 9.026 17938 0 0 0 0
487	6002112 10 0 0 0 0 1 1 1 1 1
493	6002122 85 1403 575490 0.023409340573 9.023409340573 3 44 44 132 5808
496	6002207 85 1403 575490 0.023409340573 9.023409340573 3 45 45 135 6075
497	6002292 85 1406 575493 0.023409340573 9.023409340573 3 45 45 135 6075
500	6002377 33870 1438 575528 0.024 9.024 1801 0 0 0 0
506	6036247 38082 1438 575528 0.024 9.024 1797 1 1797 1615503 1935911095
507	6074329 72 1688 185665 0.029 3.034 4 1 4 10 30
519	6074401 10 0 0 0 0 1 1 1 1 1
525	6074411 56 1950 185580 0.032763117831 3.032763117831 2 44 44 88 3872
528	6074467 56 1950 185580 0.032763117831 3.032763117831 2 45 45 90 4050
529	6074523 56 1953 185583 0.032763117831 3.032763117831 2 45 45 90 4050
532	6074579 33835 1974 575445 0.033 9.023 1799 0 0 0 0
538	6108414 38019 2615 575445 0.043 9.023 1794 1 1794 1610115 1926234245
539	6146433 91 1974 185952 0.033 3.038 5 1 5 15 55
551	6146524 10 0 0 0 0 1 1 1 1 1
557	6146534 56 3868 187724 0.062601716756 3.062601716756 2 44 44 88 3872
560	6146590 56 3868 187724 0.062601716756 3.062601716756 2 45 45 90 4050
561	6146646 56 3871 187727 0.062601716756 3.062601716756 2 45 45 90 4050
564	6146702 33733 3926 575447 0.063 9.023 1793 0 0 0 0
570	6180435 37939 3926 575447 0.063 9.023 1790 1 1790 1602945 1913382015
571	6218374 57 185228 185954 3.028 3.038 3 1 3 6 14
583	6218431 10 0 0 0 0 1 1 1 1 1
589	6218441 56 5035 189089 0.082919128996 3.082919128996 2 44 44 88 3872
592	6218497 56 5035 189089 0.082919128996 3.082919128996 2 45 45 90 4050
593	6218553 114 5038 189844 0.082919128996 3.093 5 0 47 137 6259
594	6218667 68129 4826 575738 0.079 9.026 3586 0 0 0 0
595	6286796 57 189408 189840 3.087 3.093 3 0 0 0 0
596	6286853 68054 4826 575738 0.079 9.026 3582 0 0 0 0
615	6354907 163 0 6507 0 0.105 10 1 2 19 37
621	6355070 54 1958 185587 0.03277608233 3.03277608233 2 44 44 88 3872
624	6355124 54 1958 185587 0.03277608233 3.03277608233 2 45 45 90 4050
625	6355178 74 1961 185899 0.03277608233 3.037 3 45 47 137 6259
626	6355252 76 185773 186300 3.035 3.042 4 0 0 0 0
627	6355328 19 185895 185895 3.037 3.037 1 0 0 0 0
628	6355347 123 1978 185910 0.033 3.037 7 0 0 0 0
634	6355470 85 1978 3184 0.033 0.053 5 1 5 15 55
647	6355555 163 0 6508 0 0.105 10 1 2 19 37
653	6355718 56 3712 187527 0.060278170027 3.060278170027 2 44 44 88 3872
656	6355774 56 3712 187527 0.060278170027 3.060278170027 2 45 45 90 4050
657	6355830 76 3715 187857 0.060278170027 3.065 3 45 47 137 6259
658	6355906 159 1991 188279 0.033 3.07 9 0 0 0 0
659	6356065 19 187853 187853 3.065 3.065 1 0 0 0 0
660	6356084 140 1991 187867 0.033 3.065 8 0 0 0 0
666	6356224 17 3752 3752 0.061 0.061 1 1 1 1 1
679	6356241 163 0 6509 0 0.105 10 1 2 19 37
685	6356404 56 5458 189557 0.089455451544 3.089455451544 2 44 44 88 3872
688	6356460 56 5458 189557 0.089455451544 3.089455451544 2 45 45 90 4050
689	6356516 76 5461 189918 0.089455451544 3.094 3 45 47 137 6259
690	6356592 93 5672 190360 0.092 3.099 5 0 0 0 0
691	6356685 19 189914 189914 3.094 3.094 1 0 0 0 0
692	6356704 53 5500 189928 0.09 3.094 3 0 0 0 0
711	6356757 163 0 6510 0 0.105 10 1 2 19 37
717	6356920 56 3126 186949 0.051714848483 3.051714848483 2 44 44 88 3872
720	6356976 56 3126 186949 0.051714848483 3.051714848483 2 45 45 90 4050
721	6357032 76 3129 187195 0.051714848483 3.056 3 45 47 137 6259
722	6357108 76 187100 187586 3.054 3.061 4 0 0 0 0
723	6357184 19 187191 187191 3.056 3.056 1 0 0 0 0
724	6357203 55 3149 187203 0.052 3.056 3 0 0 0 0
730	6357258 17 3149 3149 0.052 0.052 1 1 1 1 1
743	6357275 163 0 6511 0 0.105 10 1 2 19 37
749	6357438 84 972 574799 0.013945144669 9.013945144669 3 44 44 132 5808
752	6357522 84 972 574799 0.013945144669 9.013945144669 3 45 45 135 6075
753	6357606 124 975 575541 0.013945144669 9.024 5 45 47 229 10493
754	6357730 265 184419 575466 3.016 9.023 14 0 0 0 0
755	6357995 38 184523 575537 3.018 9.024 2 0 0 0 0
756	6358033 360 995 575549 0.014 9.024 20 0 0 0 0
762	6358393 152 995 3247 0.014 0.054 9 1 9 45 285
775	6358545 163 0 6512 0 0.105 10 1 2 19 37
781	6358708 56 3650 187420 0.059049774688 3.059049774688 2 44 44 88 3872
784	6358764 56 3650 187420 0.059049774688 3.059049774688 2 45 45 90 4050
785	6358820 76 3653 187804 0.059049774688 3.064 3 45 47 137 6259
786	6358896 862 1060 190376 0.015 3.099 50 0 0 0 0
787	6359758 19 187800 187800 3.064 3.064 1 0 0 0 0
788	6359777 482 1060 190376 0.015 3.099 28 0 0 0 0
792	6360259 261 1118 3511 0.017 0.057 15 1 15 120 1240
793	6360520 85 2181 3434 0.036 0.056 5 1 5 15 55
807	6360605 163 0 6513 0 0.105 10 1 2 19 37
813	6360768 56 5773 189890 0.093147725489 3.093147725489 2 44 44 88 3872
816	6360824 56 5773 189890 0.093147725489 3.093147725489 2 45 45 90 4050
817	6360880 56 5776 189893 0.093147725489 3.093147725489 2 45 45 90 4050
820	6360936 33632 5801 575543 0.094 9.024 1787 0 0 0 0
827	6394568 37886 5801 575543 0.094 9.024 1787 1 1787 1597578 1903780450
839	6432454 10 0 0 0 0 1 1 1 1 1
847	6432464 4692 605 25766 0.007 0.4070019656 180 0 160 12964 1367400
848	6437156 4692 605 25766 0.007 0.4070019656 180 0 160 12964 1367400
849	6441848 73 659 25766 0.0070001912 0.4070019656 3 0 0 0 0
850	6441921 73 659 25766 0.0070001912 0.4070019656 3 0 0 0 0
859	6441994 85 659 25766 0.0070001912 0.4070019656 3 65533 65535 196603 12884246539
860	6442079 112 150 25766 0.0000001228 0.4070019656 4 65533 65535 262138 17179082764
863	6442191 12 123 123 0 0 1 0 0 0 0
869	6442203 4703 3465 28824 0.057 0.4570019656 180 0 160 12964 1367400
870	6446906 4703 3465 28824 0.057 0.4570019656 180 0 160 12964 1367400
871	6451609 74 3529 28824 0.0570001912 0.4570019656 3 0 0 0 0
872	6451683 74 3529 28824 0.0570001912 0.4570019656 3 0 0 0 0
881	6451757 86 3529 28824 0.0570001912 0.4570019656 3 65533 65535 196603 12884246539
882	6451843 113 149 28824 0.0000001228 0.4570019656 4 65533 65535 262138 17179082764
885	6451956 12 128 128 0 0 1 0 0 0 0
886	6451968 86 3517 28817 0.0570000972 0.4570018716 3 65533 65535 196603 12884246539
890	6452054 2317 3517 28817 0.0570000972 0.4570018716 93 0 160 182 25932
895	6454371 74 3517 28817 0.0570000972 0.4570018716 3 0 0 0 0
896	6454445 74 3517 28817 0.0570000972 0.4570018716 3 0 0 0 0
897	6454519 74 3517 28817 0.0570000972 0.4570018716 3 0 0 0 0
898	6454593 74 3517 28817 0.0570000972 0.4570018716 3 0 0 0 0
899	6454667 74 3517 28817 0.0570000972 0.4570018716 3 0 0 0 0
900	6454741 74 3517 28817 0.0570000972 0.4570018716 3 0 0 0 0
901	6454815 74 3517 28817 0.0570000972 0.4570018716 3 0 0 0 0
902	6454889 77 3517 28817 0.0570000972 0.4570018716 3 16 16 48 768
904	6454966 27 163 163 0.0000003096 0.0000003096 1 65535 65535 65535 4294836225
906	6454993 3039 3520 16319 0.0570000972 0.2570018716 90 9.72e-08 1.3612e-06 0.00011102 1.486951184e-10
907	6458032 12 131 131 0 0 1 0 0 0 0
908	6458044 46 235 302 0.0000006304 0.0000008564 2 1 3 4 10
909	6458090 30 302 302 0.0000008564 0.0000008564 1 2.26e-07 2.26e-07 2.26e-07 5.1076e-14
910	6458120 27 235 235 0.0000006304 0.0000006304 1 65535 65535 65535 4294836225
911	6458147 26 235 235 0.0000006304 0.0000006304 1 8940 8940 8940 79923600
912	6458173 28 235 235 0.0000006304 0.0000006304 1 0.3725 0.3725 0.3725 0.13875625
914	6458201 2510 3517 16238 0.0570000972 0.2570018716 90 2000 2089 184005 376258965
916	6460711 44 207 221 0.000000552 0.000000596 2 1 2 3 5
917	6460755 44 207 221 0.000000552 0.000000596 2 1 2 3 5
918	6460799 46 302 308 0.0000008564 0.0000009004 2 1 2 3 5
927	6460845 12 131 131 0 0 1 0 0 0 0
935	6460857 85 647 25759 0.0070000972 0.4070018716 3 65533 65535 196603 12884246539
939	6460942 2306 647 25759 0.0070000972 0.4070018716 93 0 160 182 25932
944	6463248 73 647 25759 0.0070000972 0.4070018716 3 0 0 0 0
945	6463321 73 647 25759 0.0070000972 0.4070018716 3 0 0 0 0
946	6463394 73 647 25759 0.0070000972 0.4070018716 3 0 0 0 0
947	6463467 73 647 25759 0.0070000972 0.4070018716 3 0 0 0 0
948	6463540 73 647 25759 0.0070000972 0.4070018716 3 0 0 0 0
949	6463613 73 647 25759 0.0070000972 0.4070018716 3 0 0 0 0
950	6463686 73 647 25759 0.0070000972 0.4070018716 3 0 0 0 0
951	6463759 76 647 25759 0.0070000972 0.4070018716 3 16 16 48 768
953	6463835 27 164 164 0.0000003096 0.0000003096 1 65535 65535 65535 4294836225
955	6463862 3029 650 12894 0.0070000972 0.2070018716 90 9.72e-08 1.3612e-06 0.00011102 1.486951184e-10
956	6466891 12 132 132 0 0 1 0 0 0 0
957	6466903 46 236 301 0.0000006304 0.0000008564 2 1 3 4 10
958	6466949 30 301 301 0.0000008564 0.0000008564 1 2.26e-07 2.26e-07 2.26e-07 5.1076e-14
959	6466979 27 236 236 0.0000006304 0.0000006304 1 65535 65535 65535 4294836225
960	6467006 26 236 236 0.0000006304 0.0000006304 1 8940 8940 8940 79923600
961	6467032 28 236 236 0.0000006304 0.0000006304 1 0.3725 0.3725 0.3725 0.13875625
963	6467060 2500 647 12813 0.0070000972 0.2070018716 90 2000 2089 184005 376258965
965	6469560 44 208 222 0.000000552 0.000000596 2 1 2 3 5
966	6469604 44 208 222 0.000000552 0.000000596 2 1 2 3 5
967	6469648 46 301 307 0.0000008564 0.0000009004 2 1 2 3 5
976	6469694 12 132 132 0 0 1 0 0 0 0
1005	6469706 24 149 149 0.0000001228 0.0000001228 1 0 0 0 0
1006	6469730 23 177 177 0.000000458 0.000000458 1 3 3 3 9
1008	6469753 27 177 177 0.000000458 0.000000458 1 65535 65535 65535 4294836225
1009	6469780 26 177 177 0.000000458 0.000000458 1 8940 8940 8940 79923600
1010	6469806 28 177 177 0.000000458 0.000000458 1 0.3725 0.3725 0.3725 0.13875625
1013	6469834 23 177 177 0.000000458 0.000000458 1 1 1 1 1
1021	6469857 77 3529 28824 0.0570001912 0.4570019656 3 0 0 0 0
1022	6469934 77 3529 28824 0.0570001912 0.4570019656 3 0 0 0 0
1023	6470011 77 3529 28824 0.0570001912 0.4570019656 3 0 0 0 0
1025	6470088 24 149 149 0.0000001228 0.0000001228 1 0 0 0 0
1033	6470112 23 177 177 0.000000458 0.000000458 1 3 3 3 9
1035	6470135 27 177 177 0.000000458 0.000000458 1 65535 65535 65535 4294836225
1036	6470162 26 177 177 0.000000458 0.000000458 1 8940 8940 8940 79923600
1037	6470188 28 177 177 0.000000458 0.000000458 1 0.3725 0.3725 0.3725 0.13875625
1040	6470216 23 177 177 0.000000458 0.000000458 1 1 1 1 1
1048	6470239 77 3529 28824 0.0570001912 0.4570019656 3 0 0 0 0
1049	6470316 77 3529 28824 0.0570001912 0.4570019656 3 0 0 0 0
1050	6470393 77 3529 28824 0.0570001912 0.4570019656 3 0 0 0 0
1052	6470470 24 149 149 0.0000001228 0.0000001228 1 0 0 0 0
1060	6470494 124 177 28824 0.000000458 0.4570019656 5 1 3 7 13
1061	6470618 139 256 28824 0.0000006744 0.4570019656 4 1.912e-07 0.2000014552 0.400002182 0.080000709762303
1062	6470757 57 177 77486 0.000000458 1.2570005104 2 65535 65535 131070 8589672450
1063	6470814 55 177 77486 0.000000458 1.2570005104 2 8940 8940 17880 159847200
1064	6470869 58 177 77486 0.000000458 1.2570005104 2 0.3725 23.84 24.2125 568.48435625
1065	6470927 2593 3465 16231 0.057 0.2570005104 90 2000 2089 184005 376258965
1068	6473520 48 274 288 0.0000007624 0.0000008064 2 1 2 3 5
1069	6473568 48 274 288 0.0000007624 0.0000008064 2 1 2 3 5
1070	6473616 48 256 266 0.0000006744 0.0000007184 2 1 2 3 5
1071	6473664 4883 3465 28824 0.057 0.4570019656 180 0 160 12964 1367400
1072	6478547 4883 3465 28824 0.057 0.4570019656 180 0 160 12964 1367400
1075	6483430 77 3529 28824 0.0570001912 0.4570019656 3 0 0 0 0
1076	6483507 77 3529 28824 0.0570001912 0.4570019656 3 0 0 0 0
1077	6483584 77 3529 28824 0.0570001912 0.4570019656 3 0 0 0 0
1078	6483661 77 3529 28824 0.0570001912 0.4570019656 3 0 0 0 0
1079	6483738 24 149 149 0.0000001228 0.0000001228 1 0 0 0 0
1082	6483762 86 3529 28824 0.0570001912 0.4570019656 3 2000 2089 6098 12400002
1084	6483848 77 3529 28824 0.0570001912 0.4570019656 3 0 0 0 0
1085	6483925 77 3529 28824 0.0570001912 0.4570019656 3 0 0 0 0
1108	6484002 24 150 150 0.0000001228 0.0000001228 1 0 0 0 0
1109	6484026 23 178 178 0.000000458 0.000000458 1 3 3 3 9
1111	6484049 27 178 178 0.000000458 0.000000458 1 65535 65535 65535 4294836225
1112	6484076 26 178 178 0.000000458 0.000000458 1 8940 8940 8940 79923600
1113	6484102 28 178 178 0.000000458 0.000000458 1 0.3725 0.3725 0.3725 0.13875625
1116	6484130 23 178 178 0.000000458 0.000000458 1 1 1 1 1
1124	6484153 76 659 25766 0.0070001912 0.4070019656 3 0 0 0 0
1125	6484229 76 659 25766 0.0070001912 0.4070019656 3 0 0 0 0
1126	6484305 76 659 25766 0.0070001912 0.4070019656 3 0 0 0 0
1128	6484381 24 150 150 0.0000001228 0.0000001228 1 0 0 0 0
1136	6484405 23 178 178 0.000000458 0.000000458 1 3 3 3 9
1138	6484428 27 178 178 0.000000458 0.000000458 1 65535 65535 65535 4294836225
1139	6484455 26 178 178 0.000000458 0.000000458 1 8940 8940 8940 79923600
1140	6484481 28 178 178 0.000000458 0.000000458 1 0.3725 0.3725 0.3725 0.13875625
1143	6484509 23 178 178 0.000000458 0.000000458 1 1 1 1 1
1151	6484532 76 659 25766 0.0070001912 0.4070019656 3 0 0 0 0
1152	6484608 76 659 25766 0.0070001912 0.4070019656 3 0 0 0 0
1153	6484684 76 659 25766 0.0070001912 0.4070019656 3 0 0 0 0
1155	6484760 24 150 150 0.0000001228 0.0000001228 1 0 0 0 0
1163	6484784 123 178 25766 0.000000458 0.4070019656 5 1 3 7 13
1164	6484907 138 255 25766 0.0000006744 0.4070019656 4 1.912e-07 0.2000014552 0.400002182 0.080000709762303
1165	6485045 57 178 74425 0.000000458 1.2070005104 2 65535 65535 131070 8589672450
1166	6485102 55 178 74425 0.000000458 1.2070005104 2 8940 8940 17880 159847200
1167	6485157 58 178 74425 0.000000458 1.2070005104 2 0.3725 23.84 24.2125 568.48435625
1168	6485215 2583 605 12806 0.007 0.2070005104 90 2000 2089 184005 376258965
1171	6487798 48 273 287 0.0000007624 0.0000008064 2 1 2 3 5
1172	6487846 48 273 287 0.0000007624 0.0000008064 2 1 2 3 5
1173	6487894 48 255 265 0.0000006744 0.0000007184 2 1 2 3 5
1174	6487942 4872 605 25766 0.007 0.4070019656 180 0 160 12964 1367400
1175	6492814 4872 605 25766 0.007 0.4070019656 180 0 160 12964 1367400
1178	6497686 76 659 25766 0.0070001912 0.4070019656 3 0 0 0 0
1179	6497762 76 659 25766 0.0070001912 0.4070019656 3 0 0 0 0
1180	6497838 76 659 25766 0.0070001912 0.4070019656 3 0 0 0 0
1181	6497914 76 659 25766 0.0070001912 0.4070019656 3 0 0 0 0
1182	6497990 24 150 150 0.0000001228 0.0000001228 1 0 0 0 0
1185	6498014 85 659 25766 0.0070001912 0.4070019656 3 2000 2089 6098 12400002
1187	6498099 76 659 25766 0.0070001912 0.4070019656 3 0 0 0 0
1188	6498175 76 659 25766 0.0070001912 0.4070019656 3 0 0 0 0
1190	6498251 24 235 235 0.0000006304 0.0000006304 1 3 3 3 9
1192	6498275 28 235 235 0.0000006304 0.0000006304 1 65535 65535 65535 4294836225
1193	6498303 27 235 235 0.0000006304 0.0000006304 1 8940 8940 8940 79923600
1194	6498330 29 235 235 0.0000006304 0.0000006304 1 0.3725 0.3725 0.3725 0.13875625
1197	6498359 24 235 235 0.0000006304 0.0000006304 1 1 1 1 1
1209	6498383 24 163 163 0.0000003096 0.0000003096 1 0 0 0 0
1217	6498407 24 235 235 0.0000006304 0.0000006304 1 3 3 3 9
1219	6498431 28 235 235 0.0000006304 0.0000006304 1 65535 65535 65535 4294836225
1220	6498459 27 235 235 0.0000006304 0.0000006304 1 8940 8940 8940 79923600
1221	6498486 29 235 235 0.0000006304 0.0000006304 1 0.3725 0.3725 0.3725 0.13875625
1224	6498515 24 235 235 0.0000006304 0.0000006304 1 1 1 1 1
1236	6498539 24 163 163 0.0000003096 0.0000003096 1 0 0 0 0
1244	6498563 24 236 236 0.0000006304 0.0000006304 1 3 3 3 9
1246	6498587 28 236 236 0.0000006304 0.0000006304 1 65535 65535 65535 4294836225
1247	6498615 27 236 236 0.0000006304 0.0000006304 1 8940 8940 8940 79923600
1248	6498642 29 236 236 0.0000006304 0.0000006304 1 0.3725 0.3725 0.3725 0.13875625
1251	6498671 24 236 236 0.0000006304 0.0000006304 1 1 1 1 1
1263	6498695 24 164 164 0.0000003096 0.0000003096 1 0 0 0 0
1271	6498719 24 236 236 0.0000006304 0.0000006304 1 3 3 3 9
1273	6498743 28 236 236 0.0000006304 0.0000006304 1 65535 65535 65535 4294836225
1274	6498771 27 236 236 0.0000006304 0.0000006304 1 8940 8940 8940 79923600
1275	6498798 29 236 236 0.0000006304 0.0000006304 1 0.3725 0.3725 0.3725 0.13875625
1278	6498827 24 236 236 0.0000006304 0.0000006304 1 1 1 1 1
1290	6498851 24 164 164 0.0000003096 0.0000003096 1 0 0 0 0
1300	6498875 77 3529 28824 0.0570001912 0.4570019656 3 0 0 0 0
1301	6498952 4084 3465 16231 0.057 0.2570005104 180 0 80 6482 341850
1304	6503036 76 659 25766 0.0070001912 0.4070019656 3 0 0 0 0
1305	6503112 4054 605 12806 0.007 0.2070005104 180 0 80 6482 341850
1319	6507166 93 969 574796 0.013945144669 9.013945144669 3 7504 7504 22512 168930048
1320	6507259 93 969 574796 0.013945144669 9.013945144669 3 7504 7504 22512 168930048
1322	6507352 84 969 574796 0.013945144669 9.013945144669 3 0 0 0 0
1333	6507436 84 969 574796 0.013945144669 9.013945144669 3 0 0 0 0
1343	6507520 94 1302 575310 0.020429364846 9.020429364846 3 7504 7504 22512 168930048
1344	6507614 94 1302 575310 0.020429364846 9.020429364846 3 7504 7504 22512 168930048
1346	6507708 85 1302 575310 0.020429364846 9.020429364846 3 0 0 0 0
1357	6507793 85 1302 575310 0.020429364846 9.020429364846 3 0 0 0 0
1367	6507878 94 1400 575487 0.023409340573 9.023409340573 3 7504 7504 22512 168930048
1368	6507972 94 1400 575487 0.023409340573 9.023409340573 3 7504 7504 22512 168930048
1370	6508066 85 1400 575487 0.023409340573 9.023409340573 3 0 0 0 0
1381	6508151 85 1400 575487 0.023409340573 9.023409340573 3 0 0 0 0
1391	6508236 62 1708 185305 0.029577355213 3.029577355213 2 7504 7504 15008 112620032
1392	6508298 62 1708 185305 0.029577355213 3.029577355213 2 7504 7504 15008 112620032
1394	6508360 56 1708 185305 0.029577355213 3.029577355213 2 0 0 0 0
1405	6508416 56 1708 185305 0.029577355213 3.029577355213 2 0 0 0 0
1415	6508472 62 1872 185468 0.031389955268 3.031389955268 2 7504 7504 15008 112620032
1416	6508534 62 1872 185468 0.031389955268 3.031389955268 2 7504 7504 15008 112620032
1418	6508596 56 1872 185468 0.031389955268 3.031389955268 2 0 0 0 0
1429	6508652 56 1872 185468 0.031389955268 3.031389955268 2 0 0 0 0
1439	6508708 62 1947 185577 0.032763117831 3.032763117831 2 7504 7504 15008 112620032
1440	6508770 62 1947 185577 0.032763117831 3.032763117831 2 7504 7504 15008 112620032
1442	6508832 56 1947 185577 0.032763117831 3.032763117831 2 0 0 0 0
1453	6508888 56 1947 185577 0.032763117831 3.032763117831 2 0 0 0 0
1463	6508944 60 1955 185584 0.03277608233 3.03277608233 2 7504 7504 15008 112620032
1464	6509004 60 1955 185584 0.03277608233 3.03277608233 2 7504 7504 15008 112620032
1466	6509064 54 1955 185584 0.03277608233 3.03277608233 2 0 0 0 0
1477	6509118 54 1955 185584 0.03277608233 3.03277608233 2 0 0 0 0
1487	6509172 62 1999 185642 0.033984720812 3.033984720812 2 7504 7504 15008 112620032
1488	6509234 62 1999 185642 0.033984720812 3.033984720812 2 7504 7504 15008 112620032
1490	6509296 56 1999 185642 0.033984720812 3.033984720812 2 0 0 0 0
1501	6509352 56 1999 185642 0.033984720812 3.033984720812 2 0 0 0 0
1511	6509408 62 3123 186946 0.051714848483 3.051714848483 2 7504 7504 15008 112620032
1512	6509470 62 3123 186946 0.051714848483 3.051714848483 2 7504 7504 15008 112620032
1514	6509532 56 3123 186946 0.051714848483 3.051714848483 2 0 0 0 0
1525	6509588 56 3123 186946 0.051714848483 3.051714848483 2 0 0 0 0
1535	6509644 62 3647 187417 0.059049774688 3.059049774688 2 7504 7504 15008 112620032
1536	6509706 62 3647 187417 0.059049774688 3.059049774688 2 7504 7504 15008 112620032
1538	6509768 56 3647 187417 0.059049774688 3.059049774688 2 0 0 0 0
1549	6509824 56 3647 187417 0.059049774688 3.059049774688 2 0 0 0 0
1559	6509880 62 3709 187524 0.060278170027 3.060278170027 2 7504 7504 15008 112620032
1560	6509942 62 3709 187524 0.060278170027 3.060278170027 2 7504 7504 15008 112620032
1562	6510004 56 3709 187524 0.060278170027 3.060278170027 2 0 0 0 0
1573	6510060 56 3709 187524 0.060278170027 3.060278170027 2 0 0 0 0
1583	6510116 62 3865 187721 0.062601716756 3.062601716756 2 7504 7504 15008 112620032
1584	6510178 62 3865 187721 0.062601716756 3.062601716756 2 7504 7504 15008 112620032
1586	6510240 56 3865 187721 0.062601716756 3.062601716756 2 0 0 0 0
1597	6510296 56 3865 187721 0.062601716756 3.062601716756 2 0 0 0 0
1607	6510352 62 4672 188698 0.076266208328 3.076266208328 2 7504 7504 15008 112620032
1608	6510414 62 4672 188698 0.076266208328 3.076266208328 2 7504 7504 15008 112620032
1610	6510476 56 4672 188698 0.076266208328 3.076266208328 2 0 0 0 0
1621	6510532 56 4672 188698 0.076266208328 3.076266208328 2 0 0 0 0
1631	6510588 62 5032 189086 0.082919128996 3.082919128996 2 7504 7504 15008 112620032
1632	6510650 62 5032 189086 0.082919128996 3.082919128996 2 7504 7504 15008 112620032
1634	6510712 56 5032 189086 0.082919128996 3.082919128996 2 0 0 0 0
1645	6510768 56 5032 189086 0.082919128996 3.082919128996 2 0 0 0 0
1655	6510824 62 5074 189141 0.083256449993 3.083256449993 2 7504 7504 15008 112620032
1656	6510886 62 5074 189141 0.083256449993 3.083256449993 2 7504 7504 15008 112620032
1658	6510948 56 5074 189141 0.083256449993 3.083256449993 2 0 0 0 0
1669	6511004 56 5074 189141 0.083256449993 3.083256449993 2 0 0 0 0
1679	6511060 62 5372 189447 0.087465974346 3.087465974346 2 7504 7504 15008 112620032
1680	6511122 62 5372 189447 0.087465974346 3.087465974346 2 7504 7504 15008 112620032
1682	6511184 56 5372 189447 0.087465974346 3.087465974346 2 0 0 0 0
1693	6511240 56 5372 189447 0.087465974346 3.087465974346 2 0 0 0 0
1703	6511296 62 5455 189554 0.089455451544 3.089455451544 2 7504 7504 15008 112620032
1704	6511358 62 5455 189554 0.089455451544 3.089455451544 2 7504 7504 15008 112620032
1706	6511420 56 5455 189554 0.089455451544 3.089455451544 2 0 0 0 0
1717	6511476 56 5455 189554 0.089455451544 3.089455451544 2 0 0 0 0
1727	6511532 62 5762 189880 0.093058322349 3.093058322349 2 7504 7504 15008 112620032
1728	6511594 62 5762 189880 0.093058322349 3.093058322349 2 7504 7504 15008 112620032
1730	6511656 56 5762 189880 0.093058322349 3.093058322349 2 0 0 0 0
1741	6511712 56 5762 189880 0.093058322349 3.093058322349 2 0 0 0 0
1751	6511768 62 5770 189887 0.093147725489 3.093147725489 2 7504 7504 15008 112620032
1752	6511830 62 5770 189887 0.093147725489 3.093147725489 2 7504 7504 15008 112620032
1754	6511892 56 5770 189887 0.093147725489 3.093147725489 2 0 0 0 0
1765	6511948 56 5770 189887 0.093147725489 3.093147725489 2 0 0 0 0
1775	6512004 62 6095 190314 0.098821217397 3.098821217397 2 7504 7504 15008 112620032
1776	6512066 62 6095 190314 0.098821217397 3.098821217397 2 7504 7504 15008 112620032
1778	6512128 56 6095 190314 0.098821217397 3.098821217397 2 0 0 0 0
1789	6512184 56 6095 190314 0.098821217397 3.098821217397 2 0 0 0 0
