version 2
run CAIN-37-20200508-17:09:17-16346
attr configname CAIN
attr datetime 20200508-17:09:17
attr dist 200
attr experiment CAIN
attr inifile omnetpp.ini
attr iterationvars "$numUe=25, $pwr=-50, $dist=200, $mob=\"./movements/RWP-0.5.movements\""
attr iterationvars2 "$numUe=25, $pwr=-50, $dist=200, $mob=\"./movements/RWP-0.5.movements\", $repetition=2"
attr measurement "$numUe=25, $pwr=-50, $dist=200, $mob=\"./movements/RWP-0.5.movements\""
attr mob "\"./movements/RWP-0.5.movements\""
attr network lte.simulations.networks.CAIN
attr numUe 25
attr processid 16346
attr pwr -50
attr repetition 2
attr replication #2
attr resultdir results
attr runnumber 37
attr seedset 2
param **.**.amcMode "\"AUTO\""
param **.amcMode "\"D2D\""
param **.cainNetwork true
param **.channelControl.alpha 1.0
param **.channelControl.carrierFrequency 2100e+6Hz
param **.channelControl.pMax 10W
param **.d2dCqi 7
param **.deployer.numRbDl 50
param **.deployer.numRbUl 50
param **.distThresh ${dist=200}
param **.fbDelay 1
param **.feedbackComputation "xmldoc(\"config_channel.xml\")"
param **.mobility.constraintAreaMaxX 1000m
param **.mobility.constraintAreaMaxY 1000m
param **.mobility.constraintAreaMaxZ 0m
param **.mobility.constraintAreaMinX 0m
param **.mobility.constraintAreaMinY 0m
param **.mobility.constraintAreaMinZ 0m
param **.nic.phy.channelModel "xmldoc(\"config_channel.xml\")"
param **.numBands 50
param **.pwrThresh "${pwr= -50}"
param **.qtdThresh 3
param **.rbAllocationType "\"localized\""
param **.routingRecorder.enabled false
param **.tcpApp[*].tClose -1s
param **.ueD2DTx[*].mobility.changeAngleBy "normal(0deg, 30deg)"
param **.ueD2DTx[*].mobility.changeInterval "normal(5s, 0.1s)"
param **.ueD2DTx[*].mobility.nodeId -1
param **.ueD2DTx[*].mobility.speed "normal(2mps, 0.01mps)"
param **.ueD2DTx[*].mobility.traceFile "${mob=\"./movements/RWP-0.0.movements\",\"./movements/RWP-0.5.movements\",\"./movements/RPGM-0.0.movements\",\"./movements/RPGM-0.5.movements\",\"./movements/RWPRPGM-0.0.movements\",\"./movements/RWPRPGM-0.5.movements\"}"
param **.ueD2DTx[*].mobilityType "\"BonnMotionMobility\""
param **.usePreconfiguredTxParams false
param *.eNodeB*.numX2Apps 1
param *.eNodeB*.x2App[*].server.localPort "5000 + ancestorIndex(1)"
param *.eNodeB.d2dCapable false
param *.eNodeB.mobility.initFromDisplayString false
param *.eNodeB.mobility.initialX 300m
param *.eNodeB.mobility.initialY 300m
param *.eNodeB.nic.phy.enableD2DCqiReporting true
param *.eNodeB.txPower 19952.62315mw
param *.eNodeB.x2App[0].client.connectAddress "\"eNodeB1%x2ppp0\""
param *.eNodeB1.d2dCapable true
param *.eNodeB1.mobility.initFromDisplayString false
param *.eNodeB1.mobility.initialX 700m
param *.eNodeB1.mobility.initialY 300m
param *.eNodeB1.nic.phy.enableD2DCqiReporting true
param *.eNodeB1.txPower 19952.62315mw
param *.eNodeB1.x2App[0].client.connectAddress "\"eNodeB%x2ppp0\""
param *.extCell[*].bandAllocationType "\"FULL_ALLOC\""
param *.extCell[*].bandUtilization 0.5
param *.extCell[*].txDirection "\"ANISOTROPIC\""
param *.extCell[*].txPower 20
param *.extCell[0].position_x 100m
param *.extCell[0].position_y 600m
param *.extCell[0].txAngle 315
param *.extCell[1].position_x 600m
param *.extCell[1].position_y 600m
param *.extCell[1].txAngle 225
param *.numExtCells 2
param *.numUeCell 0
param *.numUeD2DRx 1
param *.numUeD2DTx 1
param *.ue*.macCellId 1
param *.ue*.masterId 1
param *.ue*.mobility.initFromDisplayString false
param *.ue*[0].macCellId 1
param *.ue*[0].masterId 1
param *.ue*[0].mobility.initFromDisplayString false
param *.ueD2D*.numTcpApps 1
param *.ueD2D*[*].d2dCapable true
param *.ueD2D*[0].d2dCapable false
param *.ueD2D*[0].numTcpApps 1
param *.ueD2DRx[0].mobility.initialX 310m
param *.ueD2DRx[0].mobility.initialY 350m
param *.ueD2DRx[0].tcpApp[*].localPort 1000
param *.ueD2DRx[0].tcpApp[*].typename "\"TCPSinkApp\""
param *.ueD2DTx*.nic.d2dPeerAddresses "\"ueD2DTx[1]\""
param *.ueD2DTx*.tcpApp[*].connectAddress "\"ueD2DTx[0]\""
param *.ueD2DTx*.tcpApp[*].localAddress "\"ueD2DTx\""
param *.ueD2DTx*.tcpApp[*].localPort 1000
param *.ueD2DTx*.tcpApp[*].sendBytes 1GiB
param *.ueD2DTx*.tcpApp[*].typename "\"TCPSessionApp\""
param *.ueD2DTx*.tcpApp[0].active true
param *.ueD2DTx*.tcpApp[0].connectPort 1000
param *.ueD2DTx*.tcpApp[0].tOpen uniform(0.010s,0.1s)
param *.ueD2DTx*.tcpApp[0].tSend uniform(0.15s,0.5s)
param *.ueD2DTx[0].mobility.initialX 290m
param *.ueD2DTx[0].mobility.initialY 350m
param *.ueD2DTx[0].tcpApp[*].localPort 1000
param *.ueD2DTx[0].tcpApp[*].sendBytes 1GiB
param *.ueD2DTx[0].tcpApp[*].typename "\"TCPSessionApp\""
param *.ueD2DTx[0].tcpApp[0].active true
param *.ueD2DTx[0].tcpApp[0].connectAddress "\"ueD2DRx[0]\""
param *.ueD2DTx[0].tcpApp[0].connectPort 1000
param *.ueD2DTx[0].tcpApp[0].localAddress "\"ueD2DTx[0]\""
param *.ueD2DTx[0].tcpApp[0].tOpen uniform(0.010s,0.1s)
param *.ueD2DTx[0].tcpApp[0].tSend uniform(0.15s,0.5s)
param *.ueD2DTx[1].mobility.initialX 690m
param *.ueD2DTx[1].mobility.initialY 250m

vector 8  CAIN.server.ppp[0].queue  queueLength:vector  ETV
attr interpolationmode  sample-hold
attr title  "queue length, vector"
vector 9  CAIN.server.ppp[0].ppp  txState:vector  ETV
attr interpolationmode  sample-hold
attr title  "tx state, vector"
vector 24  CAIN.router.ppp[0].queue  queueLength:vector  ETV
attr interpolationmode  sample-hold
attr title  "queue length, vector"
vector 25  CAIN.router.ppp[0].ppp  txState:vector  ETV
attr interpolationmode  sample-hold
attr title  "tx state, vector"
vector 35  CAIN.router.ppp[1].queue  queueLength:vector  ETV
attr interpolationmode  sample-hold
attr title  "queue length, vector"
vector 36  CAIN.router.ppp[1].ppp  txState:vector  ETV
attr interpolationmode  sample-hold
attr title  "tx state, vector"
vector 56  CAIN.pgw.ppp[0].queue  queueLength:vector  ETV
attr interpolationmode  sample-hold
attr title  "queue length, vector"
vector 57  CAIN.pgw.ppp[0].ppp  txState:vector  ETV
attr interpolationmode  sample-hold
attr title  "tx state, vector"
vector 67  CAIN.pgw.ppp[1].queue  queueLength:vector  ETV
attr interpolationmode  sample-hold
attr title  "queue length, vector"
vector 68  CAIN.pgw.ppp[1].ppp  txState:vector  ETV
attr interpolationmode  sample-hold
attr title  "tx state, vector"
vector 78  CAIN.pgw.pppInterface.queue  queueLength:vector  ETV
attr interpolationmode  sample-hold
attr title  "queue length, vector"
vector 79  CAIN.pgw.pppInterface.ppp  txState:vector  ETV
attr interpolationmode  sample-hold
attr title  "tx state, vector"
vector 120  CAIN.eNodeB.pppIf.queue  queueLength:vector  ETV
attr interpolationmode  sample-hold
attr title  "queue length, vector"
vector 121  CAIN.eNodeB.pppIf.ppp  txState:vector  ETV
attr interpolationmode  sample-hold
attr title  "tx state, vector"
vector 131  CAIN.eNodeB.x2ppp[0].queue  queueLength:vector  ETV
attr interpolationmode  sample-hold
attr title  "queue length, vector"
vector 132  CAIN.eNodeB.x2ppp[0].ppp  txState:vector  ETV
attr interpolationmode  sample-hold
attr title  "tx state, vector"
vector 178  CAIN.eNodeB1.pppIf.queue  queueLength:vector  ETV
attr interpolationmode  sample-hold
attr title  "queue length, vector"
vector 179  CAIN.eNodeB1.pppIf.ppp  txState:vector  ETV
attr interpolationmode  sample-hold
attr title  "tx state, vector"
vector 189  CAIN.eNodeB1.x2ppp[0].queue  queueLength:vector  ETV
attr interpolationmode  sample-hold
attr title  "queue length, vector"
vector 190  CAIN.eNodeB1.x2ppp[0].ppp  txState:vector  ETV
attr interpolationmode  sample-hold
attr title  "tx state, vector"
vector 231  CAIN.ueD2DTx[0].nic.phy  servingCell:vector  ETV
attr source  servingCell
attr title  "ID of the serving eNodeB for the UE, vector"
attr unit  ""
vector 263  CAIN.ueD2DTx[1].nic.phy  servingCell:vector  ETV
attr source  servingCell
attr title  "ID of the serving eNodeB for the UE, vector"
attr unit  ""
vector 295  CAIN.ueD2DTx[2].nic.phy  servingCell:vector  ETV
attr source  servingCell
attr title  "ID of the serving eNodeB for the UE, vector"
attr unit  ""
vector 327  CAIN.ueD2DTx[3].nic.phy  servingCell:vector  ETV
attr source  servingCell
attr title  "ID of the serving eNodeB for the UE, vector"
attr unit  ""
vector 359  CAIN.ueD2DTx[4].nic.phy  servingCell:vector  ETV
attr source  servingCell
attr title  "ID of the serving eNodeB for the UE, vector"
attr unit  ""
vector 391  CAIN.ueD2DTx[5].nic.phy  servingCell:vector  ETV
attr source  servingCell
attr title  "ID of the serving eNodeB for the UE, vector"
attr unit  ""
vector 423  CAIN.ueD2DTx[6].nic.phy  servingCell:vector  ETV
attr source  servingCell
attr title  "ID of the serving eNodeB for the UE, vector"
attr unit  ""
vector 455  CAIN.ueD2DTx[7].nic.phy  servingCell:vector  ETV
attr source  servingCell
attr title  "ID of the serving eNodeB for the UE, vector"
attr unit  ""
vector 487  CAIN.ueD2DTx[8].nic.phy  servingCell:vector  ETV
attr source  servingCell
attr title  "ID of the serving eNodeB for the UE, vector"
attr unit  ""
vector 519  CAIN.ueD2DTx[9].nic.phy  servingCell:vector  ETV
attr source  servingCell
attr title  "ID of the serving eNodeB for the UE, vector"
attr unit  ""
vector 551  CAIN.ueD2DTx[10].nic.phy  servingCell:vector  ETV
attr source  servingCell
attr title  "ID of the serving eNodeB for the UE, vector"
attr unit  ""
vector 583  CAIN.ueD2DTx[11].nic.phy  servingCell:vector  ETV
attr source  servingCell
attr title  "ID of the serving eNodeB for the UE, vector"
attr unit  ""
vector 615  CAIN.ueD2DTx[12].nic.phy  servingCell:vector  ETV
attr source  servingCell
attr title  "ID of the serving eNodeB for the UE, vector"
attr unit  ""
vector 647  CAIN.ueD2DTx[13].nic.phy  servingCell:vector  ETV
attr source  servingCell
attr title  "ID of the serving eNodeB for the UE, vector"
attr unit  ""
vector 679  CAIN.ueD2DTx[14].nic.phy  servingCell:vector  ETV
attr source  servingCell
attr title  "ID of the serving eNodeB for the UE, vector"
attr unit  ""
vector 711  CAIN.ueD2DTx[15].nic.phy  servingCell:vector  ETV
attr source  servingCell
attr title  "ID of the serving eNodeB for the UE, vector"
attr unit  ""
vector 743  CAIN.ueD2DTx[16].nic.phy  servingCell:vector  ETV
attr source  servingCell
attr title  "ID of the serving eNodeB for the UE, vector"
attr unit  ""
vector 775  CAIN.ueD2DTx[17].nic.phy  servingCell:vector  ETV
attr source  servingCell
attr title  "ID of the serving eNodeB for the UE, vector"
attr unit  ""
vector 807  CAIN.ueD2DTx[18].nic.phy  servingCell:vector  ETV
attr source  servingCell
attr title  "ID of the serving eNodeB for the UE, vector"
attr unit  ""
vector 839  CAIN.ueD2DTx[19].nic.phy  servingCell:vector  ETV
attr source  servingCell
attr title  "ID of the serving eNodeB for the UE, vector"
attr unit  ""
vector 871  CAIN.ueD2DTx[20].nic.phy  servingCell:vector  ETV
attr source  servingCell
attr title  "ID of the serving eNodeB for the UE, vector"
attr unit  ""
vector 903  CAIN.ueD2DTx[21].nic.phy  servingCell:vector  ETV
attr source  servingCell
attr title  "ID of the serving eNodeB for the UE, vector"
attr unit  ""
vector 935  CAIN.ueD2DTx[22].nic.phy  servingCell:vector  ETV
attr source  servingCell
attr title  "ID of the serving eNodeB for the UE, vector"
attr unit  ""
vector 967  CAIN.ueD2DTx[23].nic.phy  servingCell:vector  ETV
attr source  servingCell
attr title  "ID of the serving eNodeB for the UE, vector"
attr unit  ""
vector 999  CAIN.ueD2DTx[24].nic.phy  servingCell:vector  ETV
attr source  servingCell
attr title  "ID of the serving eNodeB for the UE, vector"
attr unit  ""
vector 1023  CAIN.eNodeB.sctp  "Throughput of Association 3"  ETV
vector 1045  CAIN.eNodeB1.sctp  "Throughput of Association 4"  ETV
vector 1067  CAIN.eNodeB.sctp  "Throughput of Association 1"  ETV
vector 1087  CAIN.eNodeB.sctp  "Fast Recovery State 1:10.0.5.2"  ETV
vector 1116  CAIN.eNodeB1.sctp  "Throughput of Association 2"  ETV
vector 1136  CAIN.eNodeB1.sctp  "Fast Recovery State 2:10.0.5.1"  ETV
vector 128  CAIN.eNodeB.x2ppp[0].queue  rcvdPk:vector(packetBytes)  ETV
attr interpolationmode  none
attr title  "received packets, vector(packetBytes)"
vector 130  CAIN.eNodeB.x2ppp[0].queue  queueingTime:vector  ETV
attr interpolationmode  none
attr title  "queueing time, vector"
vector 186  CAIN.eNodeB1.x2ppp[0].queue  rcvdPk:vector(packetBytes)  ETV
attr interpolationmode  none
attr title  "received packets, vector(packetBytes)"
vector 188  CAIN.eNodeB1.x2ppp[0].queue  queueingTime:vector  ETV
attr interpolationmode  none
attr title  "queueing time, vector"
vector 137  CAIN.eNodeB.x2ppp[0].ppp  rcvdPkFromHL:vector(packetBytes)  ETV
attr interpolationmode  none
attr source  packetReceivedFromUpper
attr title  "packets received from higher layer, vector(packetBytes)"
vector 133  CAIN.eNodeB.x2ppp[0].ppp  txPk:vector(packetBytes)  ETV
attr interpolationmode  none
attr source  packetSentToLower
attr title  "packets transmitted, vector(packetBytes)"
vector 195  CAIN.eNodeB1.x2ppp[0].ppp  rcvdPkFromHL:vector(packetBytes)  ETV
attr interpolationmode  none
attr source  packetReceivedFromUpper
attr title  "packets received from higher layer, vector(packetBytes)"
vector 191  CAIN.eNodeB1.x2ppp[0].ppp  txPk:vector(packetBytes)  ETV
attr interpolationmode  none
attr source  packetSentToLower
attr title  "packets transmitted, vector(packetBytes)"
vector 192  CAIN.eNodeB1.x2ppp[0].ppp  rxPkOk:vector(packetBytes)  ETV
attr interpolationmode  none
attr source  rxPkOk
attr title  "packets received OK, vector(packetBytes)"
vector 196  CAIN.eNodeB1.x2ppp[0].ppp  passedUpPk:vector(packetBytes)  ETV
attr interpolationmode  none
attr source  packetSentToUpper
attr title  "packets passed to higher layer, vector(packetBytes)"
vector 134  CAIN.eNodeB.x2ppp[0].ppp  rxPkOk:vector(packetBytes)  ETV
attr interpolationmode  none
attr source  rxPkOk
attr title  "packets received OK, vector(packetBytes)"
vector 138  CAIN.eNodeB.x2ppp[0].ppp  passedUpPk:vector(packetBytes)  ETV
attr interpolationmode  none
attr source  packetSentToUpper
attr title  "packets passed to higher layer, vector(packetBytes)"
vector 1165  CAIN.eNodeB1.sctp  "Throughput of Association 4"  ETV
vector 1042  CAIN.eNodeB1.sctp  "Peer Rwnd 4"  ETV
vector 1185  CAIN.eNodeB1.sctp  "Fast Recovery State 5:10.0.4.1"  ETV
vector 1212  CAIN.eNodeB1.sctp  "Fast Recovery State 5:10.0.2.2"  ETV
vector 1239  CAIN.eNodeB1.sctp  "Fast Recovery State 5:10.0.5.1"  ETV
vector 1268  CAIN.eNodeB.sctp  "Throughput of Association 3"  ETV
vector 1020  CAIN.eNodeB.sctp  "Peer Rwnd 3"  ETV
vector 1288  CAIN.eNodeB.sctp  "Fast Recovery State 6:10.0.4.2"  ETV
vector 1315  CAIN.eNodeB.sctp  "Fast Recovery State 6:10.0.3.2"  ETV
vector 1342  CAIN.eNodeB.sctp  "Fast Recovery State 6:10.0.5.2"  ETV
vector 1064  CAIN.eNodeB.sctp  "Peer Rwnd 1"  ETV
vector 1369  CAIN.eNodeB.sctp  "Fast Recovery State 1:10.0.4.2"  ETV
vector 1396  CAIN.eNodeB.sctp  "Fast Recovery State 1:10.0.3.2"  ETV
vector 1113  CAIN.eNodeB1.sctp  "Peer Rwnd 2"  ETV
vector 1423  CAIN.eNodeB1.sctp  "Fast Recovery State 2:10.0.4.1"  ETV
vector 1450  CAIN.eNodeB1.sctp  "Fast Recovery State 2:10.0.2.2"  ETV
vector 1195  CAIN.eNodeB1.sctp  "Slow Start Threshold 5:10.0.2.2"  ETV
vector 1196  CAIN.eNodeB1.sctp  "Congestion Window 5:10.0.2.2"  ETV
vector 1197  CAIN.eNodeB1.sctp  "Bandwidth 5:10.0.2.2"  ETV
vector 1200  CAIN.eNodeB1.sctp  "HB Sent 5:10.0.2.2"  ETV
vector 1193  CAIN.eNodeB1.sctp  "RTO 5:10.0.2.2"  ETV
vector 1168  CAIN.eNodeB1.sctp  "Slow Start Threshold 5:10.0.4.1"  ETV
vector 1169  CAIN.eNodeB1.sctp  "Congestion Window 5:10.0.4.1"  ETV
vector 1170  CAIN.eNodeB1.sctp  "Bandwidth 5:10.0.4.1"  ETV
vector 1173  CAIN.eNodeB1.sctp  "HB Sent 5:10.0.4.1"  ETV
vector 1166  CAIN.eNodeB1.sctp  "RTO 5:10.0.4.1"  ETV
vector 1222  CAIN.eNodeB1.sctp  "Slow Start Threshold 5:10.0.5.1"  ETV
vector 1223  CAIN.eNodeB1.sctp  "Congestion Window 5:10.0.5.1"  ETV
vector 1224  CAIN.eNodeB1.sctp  "Bandwidth 5:10.0.5.1"  ETV
vector 1220  CAIN.eNodeB1.sctp  "RTO 5:10.0.5.1"  ETV
vector 1298  CAIN.eNodeB.sctp  "Slow Start Threshold 6:10.0.3.2"  ETV
vector 1299  CAIN.eNodeB.sctp  "Congestion Window 6:10.0.3.2"  ETV
vector 1300  CAIN.eNodeB.sctp  "Bandwidth 6:10.0.3.2"  ETV
vector 1303  CAIN.eNodeB.sctp  "HB Sent 6:10.0.3.2"  ETV
vector 1296  CAIN.eNodeB.sctp  "RTO 6:10.0.3.2"  ETV
vector 1271  CAIN.eNodeB.sctp  "Slow Start Threshold 6:10.0.4.2"  ETV
vector 1272  CAIN.eNodeB.sctp  "Congestion Window 6:10.0.4.2"  ETV
vector 1273  CAIN.eNodeB.sctp  "Bandwidth 6:10.0.4.2"  ETV
vector 1276  CAIN.eNodeB.sctp  "HB Sent 6:10.0.4.2"  ETV
vector 1269  CAIN.eNodeB.sctp  "RTO 6:10.0.4.2"  ETV
vector 1325  CAIN.eNodeB.sctp  "Slow Start Threshold 6:10.0.5.2"  ETV
vector 1326  CAIN.eNodeB.sctp  "Congestion Window 6:10.0.5.2"  ETV
vector 1327  CAIN.eNodeB.sctp  "Bandwidth 6:10.0.5.2"  ETV
vector 1323  CAIN.eNodeB.sctp  "RTO 6:10.0.5.2"  ETV
vector 1076  CAIN.eNodeB.sctp  "HB ACK Sent 1:10.0.5.2"  ETV
vector 1077  CAIN.eNodeB.sctp  "HB Received 1:10.0.5.2"  ETV
vector 1125  CAIN.eNodeB1.sctp  "HB ACK Sent 2:10.0.5.1"  ETV
vector 1126  CAIN.eNodeB1.sctp  "HB Received 2:10.0.5.1"  ETV
vector 1379  CAIN.eNodeB.sctp  "Slow Start Threshold 1:10.0.3.2"  ETV
vector 1380  CAIN.eNodeB.sctp  "Congestion Window 1:10.0.3.2"  ETV
vector 1381  CAIN.eNodeB.sctp  "Bandwidth 1:10.0.3.2"  ETV
vector 1384  CAIN.eNodeB.sctp  "HB Sent 1:10.0.3.2"  ETV
vector 1377  CAIN.eNodeB.sctp  "RTO 1:10.0.3.2"  ETV
vector 1352  CAIN.eNodeB.sctp  "Slow Start Threshold 1:10.0.4.2"  ETV
vector 1353  CAIN.eNodeB.sctp  "Congestion Window 1:10.0.4.2"  ETV
vector 1354  CAIN.eNodeB.sctp  "Bandwidth 1:10.0.4.2"  ETV
vector 1357  CAIN.eNodeB.sctp  "HB Sent 1:10.0.4.2"  ETV
vector 1350  CAIN.eNodeB.sctp  "RTO 1:10.0.4.2"  ETV
vector 1070  CAIN.eNodeB.sctp  "Slow Start Threshold 1:10.0.5.2"  ETV
vector 1071  CAIN.eNodeB.sctp  "Congestion Window 1:10.0.5.2"  ETV
vector 1072  CAIN.eNodeB.sctp  "Bandwidth 1:10.0.5.2"  ETV
vector 1068  CAIN.eNodeB.sctp  "RTO 1:10.0.5.2"  ETV
vector 1433  CAIN.eNodeB1.sctp  "Slow Start Threshold 2:10.0.2.2"  ETV
vector 1434  CAIN.eNodeB1.sctp  "Congestion Window 2:10.0.2.2"  ETV
vector 1435  CAIN.eNodeB1.sctp  "Bandwidth 2:10.0.2.2"  ETV
vector 1438  CAIN.eNodeB1.sctp  "HB Sent 2:10.0.2.2"  ETV
vector 1431  CAIN.eNodeB1.sctp  "RTO 2:10.0.2.2"  ETV
vector 1406  CAIN.eNodeB1.sctp  "Slow Start Threshold 2:10.0.4.1"  ETV
vector 1407  CAIN.eNodeB1.sctp  "Congestion Window 2:10.0.4.1"  ETV
vector 1408  CAIN.eNodeB1.sctp  "Bandwidth 2:10.0.4.1"  ETV
vector 1411  CAIN.eNodeB1.sctp  "HB Sent 2:10.0.4.1"  ETV
vector 1404  CAIN.eNodeB1.sctp  "RTO 2:10.0.4.1"  ETV
vector 1119  CAIN.eNodeB1.sctp  "Slow Start Threshold 2:10.0.5.1"  ETV
vector 1120  CAIN.eNodeB1.sctp  "Congestion Window 2:10.0.5.1"  ETV
vector 1121  CAIN.eNodeB1.sctp  "Bandwidth 2:10.0.5.1"  ETV
vector 1117  CAIN.eNodeB1.sctp  "RTO 2:10.0.5.1"  ETV
vector 1333  CAIN.eNodeB.sctp  "HB ACK Received 6:10.0.5.2"  ETV
vector 1324  CAIN.eNodeB.sctp  "RTT 6:10.0.5.2"  ETV
vector 1230  CAIN.eNodeB1.sctp  "HB ACK Received 5:10.0.5.1"  ETV
vector 1221  CAIN.eNodeB1.sctp  "RTT 5:10.0.5.1"  ETV
vector 1331  CAIN.eNodeB.sctp  "HB ACK Sent 6:10.0.5.2"  ETV
vector 1332  CAIN.eNodeB.sctp  "HB Received 6:10.0.5.2"  ETV
vector 1228  CAIN.eNodeB1.sctp  "HB ACK Sent 5:10.0.5.1"  ETV
vector 1229  CAIN.eNodeB1.sctp  "HB Received 5:10.0.5.1"  ETV
vector 1127  CAIN.eNodeB1.sctp  "HB ACK Received 2:10.0.5.1"  ETV
vector 1118  CAIN.eNodeB1.sctp  "RTT 2:10.0.5.1"  ETV
vector 1078  CAIN.eNodeB.sctp  "HB ACK Received 1:10.0.5.2"  ETV
vector 1069  CAIN.eNodeB.sctp  "RTT 1:10.0.5.2"  ETV
vector 96  CAIN.eNodeB.nic.mac  receivedPacketFromLowerLayer:vector(packetBytes)  ETV
attr interpolationmode  none
attr source  receivedPacketFromLowerLayer
vector 1465  CAIN.eNodeB.sctp  "SendQueue of Association 6"  ETV
vector 1328  CAIN.eNodeB.sctp  "TSN Sent 6:10.0.5.2"  ETV
vector 1335  CAIN.eNodeB.sctp  "Outstanding Bytes 6:10.0.5.2"  ETV
vector 1008  CAIN.eNodeB.sctp  "Outstanding Bytes 3:Total"  ETV
vector 1334  CAIN.eNodeB.sctp  "Queued Sent Bytes 6:10.0.5.2"  ETV
vector 1007  CAIN.eNodeB.sctp  "Queued Sent Bytes 3:Total"  ETV
vector 1123  CAIN.eNodeB1.sctp  "TSN Received 2:10.0.5.1"  ETV
vector 1099  CAIN.eNodeB1.sctp  "Queued Received Bytes 2:Total"  ETV
vector 1095  CAIN.eNodeB1.sctp  "Advertised Receiver Window 2"  ETV
vector 1104  CAIN.eNodeB1.sctp  "Number of Total Gap Blocks Stored 2"  ETV
vector 1105  CAIN.eNodeB1.sctp  "Number of Revokable Gap Blocks Stored 2"  ETV
vector 1106  CAIN.eNodeB1.sctp  "Number of Non-Revokable Gap Blocks Stored 2"  ETV
vector 1107  CAIN.eNodeB1.sctp  "Number of Duplicate TSNs Stored 2"  ETV
vector 1111  CAIN.eNodeB1.sctp  "Length of SACK Sent 2"  ETV
vector 1108  CAIN.eNodeB1.sctp  "Number of Revokable Gap Blocks Sent 2"  ETV
vector 1109  CAIN.eNodeB1.sctp  "Number of Non-Revokable Gap Blocks Sent 2"  ETV
vector 1110  CAIN.eNodeB1.sctp  "Number of Duplicate TSNs Sent 2"  ETV
vector 1115  CAIN.eNodeB1.sctp  "End to End Delay of Association 2"  ETV
vector 199  CAIN.eNodeB1.x2App[0].client  rcvdPk:vector(packetBytes)  ETV
attr interpolationmode  none
attr source  rcvdPk
attr title  "packets received, vector(packetBytes)"
vector 1464  CAIN.eNodeB.sctp  "Number of Gap Blocks in Last SACK of Association 6"  ETV
vector 1009  CAIN.eNodeB.sctp  "Number of Revokable Gap Blocks in SACK 3"  ETV
vector 1010  CAIN.eNodeB.sctp  "Number of Non-Revokable Gap Blocks in SACK 3"  ETV
vector 1345  CAIN.eNodeB.sctp  "TSN Acked CumAck 6:10.0.5.2"  ETV
vector 1311  CAIN.eNodeB.sctp  "Number of Gap Acked Chunks in Last SACK 6:10.0.3.2"  ETV
vector 1312  CAIN.eNodeB.sctp  "Number of Non-Revokable Gap Acked Chunks in Last SACK 6:10.0.3.2"  ETV
vector 1313  CAIN.eNodeB.sctp  "Number of Gap Missed Chunks in Last SACK 6:10.0.3.2"  ETV
vector 1284  CAIN.eNodeB.sctp  "Number of Gap Acked Chunks in Last SACK 6:10.0.4.2"  ETV
vector 1285  CAIN.eNodeB.sctp  "Number of Non-Revokable Gap Acked Chunks in Last SACK 6:10.0.4.2"  ETV
vector 1286  CAIN.eNodeB.sctp  "Number of Gap Missed Chunks in Last SACK 6:10.0.4.2"  ETV
vector 1338  CAIN.eNodeB.sctp  "Number of Gap Acked Chunks in Last SACK 6:10.0.5.2"  ETV
vector 1339  CAIN.eNodeB.sctp  "Number of Non-Revokable Gap Acked Chunks in Last SACK 6:10.0.5.2"  ETV
vector 1340  CAIN.eNodeB.sctp  "Number of Gap Missed Chunks in Last SACK 6:10.0.5.2"  ETV
vector 1019  CAIN.eNodeB.sctp  "Arwnd in Last SACK 3"  ETV
vector 1347  CAIN.eNodeB.sctp  "TSN PseudoCumAck 6:10.0.5.2"  ETV
vector 1348  CAIN.eNodeB.sctp  "TSN RTXPseudoCumAck 6:10.0.5.2"  ETV
vector 1341  CAIN.eNodeB.sctp  "Partial Bytes Acked 6:10.0.5.2"  ETV
vector 1493  CAIN.ueD2DTx[17].tcp  tcpRcvQueueBytes  ETV
vector 1480  CAIN.ueD2DTx[17].tcp  "advertised window"  ETV
vector 1479  CAIN.ueD2DTx[17].tcp  "receive window"  ETV
vector 1482  CAIN.ueD2DTx[17].tcp  "sent ack"  ETV
vector 749  CAIN.ueD2DTx[17].nic.pdcpRrc  receivedPacketFromUpperLayer:vector(packetBytes)  ETV
attr interpolationmode  none
attr source  receivedPacketFromUpperLayer
vector 752  CAIN.ueD2DTx[17].nic.pdcpRrc  sentPacketToLowerLayer:vector(packetBytes)  ETV
attr interpolationmode  none
attr source  sentPacketToLowerLayer
vector 753  CAIN.ueD2DTx[17].nic.mac  receivedPacketFromUpperLayer:vector(packetBytes)  ETV
attr interpolationmode  none
attr source  receivedPacketFromUpperLayer
vector 756  CAIN.ueD2DTx[17].nic.mac  sentPacketToLowerLayer:vector(packetBytes)  ETV
attr interpolationmode  none
attr source  sentPacketToLowerLayer
vector 111  CAIN.eNodeB.nic.mac  racpkt:vector  ETV
attr interpolationmode  none
attr title  "eNB received racpkt message, vector"
vector 112  CAIN.eNodeB.nic.mac  racDistanceSignal:vector  ETV
attr interpolationmode  none
attr title  "Rac distance to enb, vector"
vector 113  CAIN.eNodeB.nic.mac  racServedDevsSignal:vector  ETV
attr interpolationmode  none
attr title  "# of devices served on rac arriavall, vector"
vector 98  CAIN.eNodeB.nic.mac  sentPacketToLowerLayer:vector(packetBytes)  ETV
attr interpolationmode  none
attr source  sentPacketToLowerLayer
vector 754  CAIN.ueD2DTx[17].nic.mac  receivedPacketFromLowerLayer:vector(packetBytes)  ETV
attr interpolationmode  none
attr source  receivedPacketFromLowerLayer
vector 1517  CAIN.ueD2DTx[24].tcp  tcpRcvQueueBytes  ETV
vector 1504  CAIN.ueD2DTx[24].tcp  "advertised window"  ETV
vector 1503  CAIN.ueD2DTx[24].tcp  "receive window"  ETV
vector 1506  CAIN.ueD2DTx[24].tcp  "sent ack"  ETV
vector 973  CAIN.ueD2DTx[24].nic.pdcpRrc  receivedPacketFromUpperLayer:vector(packetBytes)  ETV
attr interpolationmode  none
attr source  receivedPacketFromUpperLayer
vector 976  CAIN.ueD2DTx[24].nic.pdcpRrc  sentPacketToLowerLayer:vector(packetBytes)  ETV
attr interpolationmode  none
attr source  sentPacketToLowerLayer
vector 977  CAIN.ueD2DTx[24].nic.mac  receivedPacketFromUpperLayer:vector(packetBytes)  ETV
attr interpolationmode  none
attr source  receivedPacketFromUpperLayer
vector 755  CAIN.ueD2DTx[17].nic.mac  sentPacketToUpperLayer:vector(packetBytes)  ETV
attr interpolationmode  none
attr source  sentPacketToUpperLayer
vector 986  CAIN.ueD2DTx[24].nic.mac  CainMessageSent:vector  ETV
attr interpolationmode  none
attr title  "# of Sent CAIN message, vector"
vector 980  CAIN.ueD2DTx[24].nic.mac  sentPacketToLowerLayer:vector(packetBytes)  ETV
attr interpolationmode  none
attr source  sentPacketToLowerLayer
vector 722  CAIN.ueD2DTx[16].nic.mac  receivedPacketFromLowerLayer:vector(packetBytes)  ETV
attr interpolationmode  none
attr source  receivedPacketFromLowerLayer
vector 724  CAIN.ueD2DTx[16].nic.mac  sentPacketToLowerLayer:vector(packetBytes)  ETV
attr interpolationmode  none
attr source  sentPacketToLowerLayer
vector 115  CAIN.eNodeB.nic.phy  averageCqiUlvect:vector  ETV
attr source  averageCqiUlvect
attr title  "Average Cqi reported in UL, vector"
attr unit  cqi
vector 106  CAIN.eNodeB.nic.mac  DistanceSignal:vector  ETV
attr interpolationmode  none
attr title  "Distance to enb, vector"
vector 100  CAIN.eNodeB.nic.mac  CainMessage:vector  ETV
attr interpolationmode  none
attr title  "eNB received CAIN message, vector"
vector 1541  CAIN.ueD2DTx[8].tcp  tcpRcvQueueBytes  ETV
vector 1528  CAIN.ueD2DTx[8].tcp  "advertised window"  ETV
vector 1527  CAIN.ueD2DTx[8].tcp  "receive window"  ETV
vector 1530  CAIN.ueD2DTx[8].tcp  "sent ack"  ETV
vector 461  CAIN.ueD2DTx[8].nic.pdcpRrc  receivedPacketFromUpperLayer:vector(packetBytes)  ETV
attr interpolationmode  none
attr source  receivedPacketFromUpperLayer
vector 464  CAIN.ueD2DTx[8].nic.pdcpRrc  sentPacketToLowerLayer:vector(packetBytes)  ETV
attr interpolationmode  none
attr source  sentPacketToLowerLayer
vector 465  CAIN.ueD2DTx[8].nic.mac  receivedPacketFromUpperLayer:vector(packetBytes)  ETV
attr interpolationmode  none
attr source  receivedPacketFromUpperLayer
vector 474  CAIN.ueD2DTx[8].nic.mac  CainMessageSent:vector  ETV
attr interpolationmode  none
attr title  "# of Sent CAIN message, vector"
vector 468  CAIN.ueD2DTx[8].nic.mac  sentPacketToLowerLayer:vector(packetBytes)  ETV
attr interpolationmode  none
attr source  sentPacketToLowerLayer
vector 728  CAIN.ueD2DTx[16].nic.mac  DropedCainMessage:vector  ETV
attr interpolationmode  none
attr title  "Droped CAIN message due to RB not available, vector"
vector 99  CAIN.eNodeB.nic.mac  measuredItbs:vector  ETV
attr source  measuredItbs
attr title  "TBS index, vector"
attr unit  ""
vector 946  CAIN.ueD2DTx[23].nic.mac  receivedPacketFromLowerLayer:vector(packetBytes)  ETV
attr interpolationmode  none
attr source  receivedPacketFromLowerLayer
vector 948  CAIN.ueD2DTx[23].nic.mac  sentPacketToLowerLayer:vector(packetBytes)  ETV
attr interpolationmode  none
attr source  sentPacketToLowerLayer
vector 1565  CAIN.ueD2DTx[9].tcp  tcpRcvQueueBytes  ETV
vector 1552  CAIN.ueD2DTx[9].tcp  "advertised window"  ETV
vector 1551  CAIN.ueD2DTx[9].tcp  "receive window"  ETV
vector 1554  CAIN.ueD2DTx[9].tcp  "sent ack"  ETV
vector 493  CAIN.ueD2DTx[9].nic.pdcpRrc  receivedPacketFromUpperLayer:vector(packetBytes)  ETV
attr interpolationmode  none
attr source  receivedPacketFromUpperLayer
vector 496  CAIN.ueD2DTx[9].nic.pdcpRrc  sentPacketToLowerLayer:vector(packetBytes)  ETV
attr interpolationmode  none
attr source  sentPacketToLowerLayer
vector 497  CAIN.ueD2DTx[9].nic.mac  receivedPacketFromUpperLayer:vector(packetBytes)  ETV
attr interpolationmode  none
attr source  receivedPacketFromUpperLayer
vector 506  CAIN.ueD2DTx[9].nic.mac  CainMessageSent:vector  ETV
attr interpolationmode  none
attr title  "# of Sent CAIN message, vector"
vector 500  CAIN.ueD2DTx[9].nic.mac  sentPacketToLowerLayer:vector(packetBytes)  ETV
attr interpolationmode  none
attr source  sentPacketToLowerLayer
vector 952  CAIN.ueD2DTx[23].nic.mac  DropedCainMessage:vector  ETV
attr interpolationmode  none
attr title  "Droped CAIN message due to RB not available, vector"
vector 97  CAIN.eNodeB.nic.mac  sentPacketToUpperLayer:vector(packetBytes)  ETV
attr interpolationmode  none
attr source  sentPacketToUpperLayer
vector 92  CAIN.eNodeB.nic.pdcpRrc  receivedPacketFromLowerLayer:vector(packetBytes)  ETV
attr interpolationmode  none
attr source  receivedPacketFromLowerLayer
vector 93  CAIN.eNodeB.nic.pdcpRrc  sentPacketToUpperLayer:vector(packetBytes)  ETV
attr interpolationmode  none
attr source  sentPacketToUpperLayer
vector 91  CAIN.eNodeB.nic.pdcpRrc  receivedPacketFromUpperLayer:vector(packetBytes)  ETV
attr interpolationmode  none
attr source  receivedPacketFromUpperLayer
vector 94  CAIN.eNodeB.nic.pdcpRrc  sentPacketToLowerLayer:vector(packetBytes)  ETV
attr interpolationmode  none
attr source  sentPacketToLowerLayer
vector 95  CAIN.eNodeB.nic.mac  receivedPacketFromUpperLayer:vector(packetBytes)  ETV
attr interpolationmode  none
attr source  receivedPacketFromUpperLayer
vector 108  CAIN.eNodeB.nic.mac  ServedDevs:vector  ETV
attr interpolationmode  none
attr title  "# of devices served on cain forwarding, vector"
vector 1589  CAIN.ueD2DTx[7].tcp  tcpRcvQueueBytes  ETV
vector 1576  CAIN.ueD2DTx[7].tcp  "advertised window"  ETV
vector 1575  CAIN.ueD2DTx[7].tcp  "receive window"  ETV
vector 1578  CAIN.ueD2DTx[7].tcp  "sent ack"  ETV
vector 429  CAIN.ueD2DTx[7].nic.pdcpRrc  receivedPacketFromUpperLayer:vector(packetBytes)  ETV
attr interpolationmode  none
attr source  receivedPacketFromUpperLayer
vector 432  CAIN.ueD2DTx[7].nic.pdcpRrc  sentPacketToLowerLayer:vector(packetBytes)  ETV
attr interpolationmode  none
attr source  sentPacketToLowerLayer
vector 433  CAIN.ueD2DTx[7].nic.mac  receivedPacketFromUpperLayer:vector(packetBytes)  ETV
attr interpolationmode  none
attr source  receivedPacketFromUpperLayer
vector 443  CAIN.ueD2DTx[7].nic.mac  CainHopMessageSent:vector  ETV
attr interpolationmode  none
attr title  "# of Sent CAIN hop message, vector"
vector 436  CAIN.ueD2DTx[7].nic.mac  sentPacketToLowerLayer:vector(packetBytes)  ETV
attr interpolationmode  none
attr source  sentPacketToLowerLayer
vector 228  CAIN.ueD2DTx[0].nic.phy  averageCqiDlvect:vector  ETV
attr source  averageCqiDlvect
attr title  "Average Cqi reported in DL, vector"
attr unit  cqi
vector 210  CAIN.ueD2DTx[0].nic.mac  receivedPacketFromLowerLayer:vector(packetBytes)  ETV
attr interpolationmode  none
attr source  receivedPacketFromLowerLayer
vector 786  CAIN.ueD2DTx[18].nic.mac  receivedPacketFromLowerLayer:vector(packetBytes)  ETV
attr interpolationmode  none
attr source  receivedPacketFromLowerLayer
vector 788  CAIN.ueD2DTx[18].nic.mac  sentPacketToLowerLayer:vector(packetBytes)  ETV
attr interpolationmode  none
attr source  sentPacketToLowerLayer
vector 1613  CAIN.ueD2DTx[5].tcp  tcpRcvQueueBytes  ETV
vector 1600  CAIN.ueD2DTx[5].tcp  "advertised window"  ETV
vector 1599  CAIN.ueD2DTx[5].tcp  "receive window"  ETV
vector 1602  CAIN.ueD2DTx[5].tcp  "sent ack"  ETV
vector 365  CAIN.ueD2DTx[5].nic.pdcpRrc  receivedPacketFromUpperLayer:vector(packetBytes)  ETV
attr interpolationmode  none
attr source  receivedPacketFromUpperLayer
vector 368  CAIN.ueD2DTx[5].nic.pdcpRrc  sentPacketToLowerLayer:vector(packetBytes)  ETV
attr interpolationmode  none
attr source  sentPacketToLowerLayer
vector 369  CAIN.ueD2DTx[5].nic.mac  receivedPacketFromUpperLayer:vector(packetBytes)  ETV
attr interpolationmode  none
attr source  receivedPacketFromUpperLayer
vector 379  CAIN.ueD2DTx[5].nic.mac  CainHopMessageSent:vector  ETV
attr interpolationmode  none
attr title  "# of Sent CAIN hop message, vector"
vector 372  CAIN.ueD2DTx[5].nic.mac  sentPacketToLowerLayer:vector(packetBytes)  ETV
attr interpolationmode  none
attr source  sentPacketToLowerLayer
vector 690  CAIN.ueD2DTx[15].nic.mac  receivedPacketFromLowerLayer:vector(packetBytes)  ETV
attr interpolationmode  none
attr source  receivedPacketFromLowerLayer
vector 692  CAIN.ueD2DTx[15].nic.mac  sentPacketToLowerLayer:vector(packetBytes)  ETV
attr interpolationmode  none
attr source  sentPacketToLowerLayer
vector 1637  CAIN.ueD2DTx[10].tcp  tcpRcvQueueBytes  ETV
vector 1624  CAIN.ueD2DTx[10].tcp  "advertised window"  ETV
vector 1623  CAIN.ueD2DTx[10].tcp  "receive window"  ETV
vector 1626  CAIN.ueD2DTx[10].tcp  "sent ack"  ETV
vector 525  CAIN.ueD2DTx[10].nic.pdcpRrc  receivedPacketFromUpperLayer:vector(packetBytes)  ETV
attr interpolationmode  none
attr source  receivedPacketFromUpperLayer
vector 528  CAIN.ueD2DTx[10].nic.pdcpRrc  sentPacketToLowerLayer:vector(packetBytes)  ETV
attr interpolationmode  none
attr source  sentPacketToLowerLayer
vector 529  CAIN.ueD2DTx[10].nic.mac  receivedPacketFromUpperLayer:vector(packetBytes)  ETV
attr interpolationmode  none
attr source  receivedPacketFromUpperLayer
vector 1661  CAIN.ueD2DTx[13].tcp  tcpRcvQueueBytes  ETV
vector 1648  CAIN.ueD2DTx[13].tcp  "advertised window"  ETV
vector 1647  CAIN.ueD2DTx[13].tcp  "receive window"  ETV
vector 1650  CAIN.ueD2DTx[13].tcp  "sent ack"  ETV
vector 621  CAIN.ueD2DTx[13].nic.pdcpRrc  receivedPacketFromUpperLayer:vector(packetBytes)  ETV
attr interpolationmode  none
attr source  receivedPacketFromUpperLayer
vector 624  CAIN.ueD2DTx[13].nic.pdcpRrc  sentPacketToLowerLayer:vector(packetBytes)  ETV
attr interpolationmode  none
attr source  sentPacketToLowerLayer
vector 625  CAIN.ueD2DTx[13].nic.mac  receivedPacketFromUpperLayer:vector(packetBytes)  ETV
attr interpolationmode  none
attr source  receivedPacketFromUpperLayer
vector 212  CAIN.ueD2DTx[0].nic.mac  sentPacketToLowerLayer:vector(packetBytes)  ETV
attr interpolationmode  none
attr source  sentPacketToLowerLayer
vector 211  CAIN.ueD2DTx[0].nic.mac  sentPacketToUpperLayer:vector(packetBytes)  ETV
attr interpolationmode  none
attr source  sentPacketToUpperLayer
vector 206  CAIN.ueD2DTx[0].nic.pdcpRrc  receivedPacketFromLowerLayer:vector(packetBytes)  ETV
attr interpolationmode  none
attr source  receivedPacketFromLowerLayer
vector 207  CAIN.ueD2DTx[0].nic.pdcpRrc  sentPacketToUpperLayer:vector(packetBytes)  ETV
attr interpolationmode  none
attr source  sentPacketToUpperLayer
vector 538  CAIN.ueD2DTx[10].nic.mac  CainMessageSent:vector  ETV
attr interpolationmode  none
attr title  "# of Sent CAIN message, vector"
vector 532  CAIN.ueD2DTx[10].nic.mac  sentPacketToLowerLayer:vector(packetBytes)  ETV
attr interpolationmode  none
attr source  sentPacketToLowerLayer
vector 628  CAIN.ueD2DTx[13].nic.mac  sentPacketToLowerLayer:vector(packetBytes)  ETV
attr interpolationmode  none
attr source  sentPacketToLowerLayer
vector 978  CAIN.ueD2DTx[24].nic.mac  receivedPacketFromLowerLayer:vector(packetBytes)  ETV
attr interpolationmode  none
attr source  receivedPacketFromLowerLayer
vector 101  CAIN.eNodeB.nic.mac  CainHopMessage:vector  ETV
attr interpolationmode  none
attr title  "eNB received CAIN hop message, vector"
vector 1685  CAIN.ueD2DTx[0].tcp  tcpRcvQueueBytes  ETV
vector 1672  CAIN.ueD2DTx[0].tcp  "advertised window"  ETV
vector 1671  CAIN.ueD2DTx[0].tcp  "receive window"  ETV
vector 1674  CAIN.ueD2DTx[0].tcp  "sent ack"  ETV
vector 205  CAIN.ueD2DTx[0].nic.pdcpRrc  receivedPacketFromUpperLayer:vector(packetBytes)  ETV
attr interpolationmode  none
attr source  receivedPacketFromUpperLayer
vector 208  CAIN.ueD2DTx[0].nic.pdcpRrc  sentPacketToLowerLayer:vector(packetBytes)  ETV
attr interpolationmode  none
attr source  sentPacketToLowerLayer
vector 209  CAIN.ueD2DTx[0].nic.mac  receivedPacketFromUpperLayer:vector(packetBytes)  ETV
attr interpolationmode  none
attr source  receivedPacketFromUpperLayer
vector 219  CAIN.ueD2DTx[0].nic.mac  CainHopMessageSent:vector  ETV
attr interpolationmode  none
attr title  "# of Sent CAIN hop message, vector"
vector 626  CAIN.ueD2DTx[13].nic.mac  receivedPacketFromLowerLayer:vector(packetBytes)  ETV
attr interpolationmode  none
attr source  receivedPacketFromLowerLayer
vector 697  CAIN.ueD2DTx[15].nic.mac  DropedHopMessage:vector  ETV
attr interpolationmode  none
attr title  "Droped Hop CAIN message due to RB not available, vector"
vector 530  CAIN.ueD2DTx[10].nic.mac  receivedPacketFromLowerLayer:vector(packetBytes)  ETV
attr interpolationmode  none
attr source  receivedPacketFromLowerLayer
vector 729  CAIN.ueD2DTx[16].nic.mac  DropedHopMessage:vector  ETV
attr interpolationmode  none
attr title  "Droped Hop CAIN message due to RB not available, vector"
vector 627  CAIN.ueD2DTx[13].nic.mac  sentPacketToUpperLayer:vector(packetBytes)  ETV
attr interpolationmode  none
attr source  sentPacketToUpperLayer
vector 109  CAIN.eNodeB.nic.mac  ServedHopDevs:vector  ETV
attr interpolationmode  none
attr title  "# of devices served on hop forwarding, vector"
vector 1709  CAIN.ueD2DTx[21].tcp  tcpRcvQueueBytes  ETV
vector 1696  CAIN.ueD2DTx[21].tcp  "advertised window"  ETV
vector 1695  CAIN.ueD2DTx[21].tcp  "receive window"  ETV
vector 1698  CAIN.ueD2DTx[21].tcp  "sent ack"  ETV
vector 877  CAIN.ueD2DTx[21].nic.pdcpRrc  receivedPacketFromUpperLayer:vector(packetBytes)  ETV
attr interpolationmode  none
attr source  receivedPacketFromUpperLayer
vector 880  CAIN.ueD2DTx[21].nic.pdcpRrc  sentPacketToLowerLayer:vector(packetBytes)  ETV
attr interpolationmode  none
attr source  sentPacketToLowerLayer
vector 881  CAIN.ueD2DTx[21].nic.mac  receivedPacketFromUpperLayer:vector(packetBytes)  ETV
attr interpolationmode  none
attr source  receivedPacketFromUpperLayer
vector 891  CAIN.ueD2DTx[21].nic.mac  CainHopMessageSent:vector  ETV
attr interpolationmode  none
attr title  "# of Sent CAIN hop message, vector"
vector 884  CAIN.ueD2DTx[21].nic.mac  sentPacketToLowerLayer:vector(packetBytes)  ETV
attr interpolationmode  none
attr source  sentPacketToLowerLayer
vector 539  CAIN.ueD2DTx[10].nic.mac  CainHopMessageSent:vector  ETV
attr interpolationmode  none
attr title  "# of Sent CAIN hop message, vector"
vector 274  CAIN.ueD2DTx[2].nic.mac  receivedPacketFromLowerLayer:vector(packetBytes)  ETV
attr interpolationmode  none
attr source  receivedPacketFromLowerLayer
vector 276  CAIN.ueD2DTx[2].nic.mac  sentPacketToLowerLayer:vector(packetBytes)  ETV
attr interpolationmode  none
attr source  sentPacketToLowerLayer
vector 1733  CAIN.ueD2DTx[20].tcp  tcpRcvQueueBytes  ETV
vector 1720  CAIN.ueD2DTx[20].tcp  "advertised window"  ETV
vector 1719  CAIN.ueD2DTx[20].tcp  "receive window"  ETV
vector 1722  CAIN.ueD2DTx[20].tcp  "sent ack"  ETV
vector 845  CAIN.ueD2DTx[20].nic.pdcpRrc  receivedPacketFromUpperLayer:vector(packetBytes)  ETV
attr interpolationmode  none
attr source  receivedPacketFromUpperLayer
vector 848  CAIN.ueD2DTx[20].nic.pdcpRrc  sentPacketToLowerLayer:vector(packetBytes)  ETV
attr interpolationmode  none
attr source  sentPacketToLowerLayer
vector 849  CAIN.ueD2DTx[20].nic.mac  receivedPacketFromUpperLayer:vector(packetBytes)  ETV
attr interpolationmode  none
attr source  receivedPacketFromUpperLayer
vector 859  CAIN.ueD2DTx[20].nic.mac  CainHopMessageSent:vector  ETV
attr interpolationmode  none
attr title  "# of Sent CAIN hop message, vector"
vector 852  CAIN.ueD2DTx[20].nic.mac  sentPacketToLowerLayer:vector(packetBytes)  ETV
attr interpolationmode  none
attr source  sentPacketToLowerLayer
vector 281  CAIN.ueD2DTx[2].nic.mac  DropedHopMessage:vector  ETV
attr interpolationmode  none
attr title  "Droped Hop CAIN message due to RB not available, vector"
vector 1757  CAIN.ueD2DTx[16].tcp  tcpRcvQueueBytes  ETV
vector 1744  CAIN.ueD2DTx[16].tcp  "advertised window"  ETV
vector 1743  CAIN.ueD2DTx[16].tcp  "receive window"  ETV
vector 1746  CAIN.ueD2DTx[16].tcp  "sent ack"  ETV
vector 717  CAIN.ueD2DTx[16].nic.pdcpRrc  receivedPacketFromUpperLayer:vector(packetBytes)  ETV
attr interpolationmode  none
attr source  receivedPacketFromUpperLayer
vector 720  CAIN.ueD2DTx[16].nic.pdcpRrc  sentPacketToLowerLayer:vector(packetBytes)  ETV
attr interpolationmode  none
attr source  sentPacketToLowerLayer
vector 721  CAIN.ueD2DTx[16].nic.mac  receivedPacketFromUpperLayer:vector(packetBytes)  ETV
attr interpolationmode  none
attr source  receivedPacketFromUpperLayer
vector 1781  CAIN.ueD2DTx[22].tcp  tcpRcvQueueBytes  ETV
vector 1768  CAIN.ueD2DTx[22].tcp  "advertised window"  ETV
vector 1767  CAIN.ueD2DTx[22].tcp  "receive window"  ETV
vector 1770  CAIN.ueD2DTx[22].tcp  "sent ack"  ETV
vector 909  CAIN.ueD2DTx[22].nic.pdcpRrc  receivedPacketFromUpperLayer:vector(packetBytes)  ETV
attr interpolationmode  none
attr source  receivedPacketFromUpperLayer
vector 912  CAIN.ueD2DTx[22].nic.pdcpRrc  sentPacketToLowerLayer:vector(packetBytes)  ETV
attr interpolationmode  none
attr source  sentPacketToLowerLayer
vector 913  CAIN.ueD2DTx[22].nic.mac  receivedPacketFromUpperLayer:vector(packetBytes)  ETV
attr interpolationmode  none
attr source  receivedPacketFromUpperLayer
vector 916  CAIN.ueD2DTx[22].nic.mac  sentPacketToLowerLayer:vector(packetBytes)  ETV
attr interpolationmode  none
attr source  sentPacketToLowerLayer
vector 723  CAIN.ueD2DTx[16].nic.mac  sentPacketToUpperLayer:vector(packetBytes)  ETV
attr interpolationmode  none
attr source  sentPacketToUpperLayer
vector 914  CAIN.ueD2DTx[22].nic.mac  receivedPacketFromLowerLayer:vector(packetBytes)  ETV
attr interpolationmode  none
attr source  receivedPacketFromLowerLayer
vector 1461  CAIN.eNodeB1.sctp  "SendQueue of Association 5"  ETV
vector 1225  CAIN.eNodeB1.sctp  "TSN Sent 5:10.0.5.1"  ETV
vector 1232  CAIN.eNodeB1.sctp  "Outstanding Bytes 5:10.0.5.1"  ETV
vector 1030  CAIN.eNodeB1.sctp  "Outstanding Bytes 4:Total"  ETV
vector 1231  CAIN.eNodeB1.sctp  "Queued Sent Bytes 5:10.0.5.1"  ETV
vector 1029  CAIN.eNodeB1.sctp  "Queued Sent Bytes 4:Total"  ETV
vector 1074  CAIN.eNodeB.sctp  "TSN Received 1:10.0.5.2"  ETV
vector 1050  CAIN.eNodeB.sctp  "Queued Received Bytes 1:Total"  ETV
vector 1046  CAIN.eNodeB.sctp  "Advertised Receiver Window 1"  ETV
vector 1055  CAIN.eNodeB.sctp  "Number of Total Gap Blocks Stored 1"  ETV
vector 1056  CAIN.eNodeB.sctp  "Number of Revokable Gap Blocks Stored 1"  ETV
vector 1057  CAIN.eNodeB.sctp  "Number of Non-Revokable Gap Blocks Stored 1"  ETV
vector 1058  CAIN.eNodeB.sctp  "Number of Duplicate TSNs Stored 1"  ETV
vector 1062  CAIN.eNodeB.sctp  "Length of SACK Sent 1"  ETV
vector 1059  CAIN.eNodeB.sctp  "Number of Revokable Gap Blocks Sent 1"  ETV
vector 1060  CAIN.eNodeB.sctp  "Number of Non-Revokable Gap Blocks Sent 1"  ETV
vector 1061  CAIN.eNodeB.sctp  "Number of Duplicate TSNs Sent 1"  ETV
vector 1066  CAIN.eNodeB.sctp  "End to End Delay of Association 1"  ETV
vector 141  CAIN.eNodeB.x2App[0].client  rcvdPk:vector(packetBytes)  ETV
attr interpolationmode  none
attr source  rcvdPk
attr title  "packets received, vector(packetBytes)"
vector 1460  CAIN.eNodeB1.sctp  "Number of Gap Blocks in Last SACK of Association 5"  ETV
vector 1031  CAIN.eNodeB1.sctp  "Number of Revokable Gap Blocks in SACK 4"  ETV
vector 1032  CAIN.eNodeB1.sctp  "Number of Non-Revokable Gap Blocks in SACK 4"  ETV
vector 1242  CAIN.eNodeB1.sctp  "TSN Acked CumAck 5:10.0.5.1"  ETV
vector 1208  CAIN.eNodeB1.sctp  "Number of Gap Acked Chunks in Last SACK 5:10.0.2.2"  ETV
vector 1209  CAIN.eNodeB1.sctp  "Number of Non-Revokable Gap Acked Chunks in Last SACK 5:10.0.2.2"  ETV
vector 1210  CAIN.eNodeB1.sctp  "Number of Gap Missed Chunks in Last SACK 5:10.0.2.2"  ETV
vector 1181  CAIN.eNodeB1.sctp  "Number of Gap Acked Chunks in Last SACK 5:10.0.4.1"  ETV
vector 1182  CAIN.eNodeB1.sctp  "Number of Non-Revokable Gap Acked Chunks in Last SACK 5:10.0.4.1"  ETV
vector 1183  CAIN.eNodeB1.sctp  "Number of Gap Missed Chunks in Last SACK 5:10.0.4.1"  ETV
vector 1235  CAIN.eNodeB1.sctp  "Number of Gap Acked Chunks in Last SACK 5:10.0.5.1"  ETV
vector 1236  CAIN.eNodeB1.sctp  "Number of Non-Revokable Gap Acked Chunks in Last SACK 5:10.0.5.1"  ETV
vector 1237  CAIN.eNodeB1.sctp  "Number of Gap Missed Chunks in Last SACK 5:10.0.5.1"  ETV
vector 1041  CAIN.eNodeB1.sctp  "Arwnd in Last SACK 4"  ETV
vector 1244  CAIN.eNodeB1.sctp  "TSN PseudoCumAck 5:10.0.5.1"  ETV
vector 1245  CAIN.eNodeB1.sctp  "TSN RTXPseudoCumAck 5:10.0.5.1"  ETV
vector 1238  CAIN.eNodeB1.sctp  "Partial Bytes Acked 5:10.0.5.1"  ETV
vector 915  CAIN.ueD2DTx[22].nic.mac  sentPacketToUpperLayer:vector(packetBytes)  ETV
attr interpolationmode  none
attr source  sentPacketToUpperLayer
vector 1805  CAIN.ueD2DTx[23].tcp  tcpRcvQueueBytes  ETV
vector 1792  CAIN.ueD2DTx[23].tcp  "advertised window"  ETV
vector 1791  CAIN.ueD2DTx[23].tcp  "receive window"  ETV
vector 1794  CAIN.ueD2DTx[23].tcp  "sent ack"  ETV
vector 941  CAIN.ueD2DTx[23].nic.pdcpRrc  receivedPacketFromUpperLayer:vector(packetBytes)  ETV
attr interpolationmode  none
attr source  receivedPacketFromUpperLayer
vector 944  CAIN.ueD2DTx[23].nic.pdcpRrc  sentPacketToLowerLayer:vector(packetBytes)  ETV
attr interpolationmode  none
attr source  sentPacketToLowerLayer
vector 945  CAIN.ueD2DTx[23].nic.mac  receivedPacketFromUpperLayer:vector(packetBytes)  ETV
attr interpolationmode  none
attr source  receivedPacketFromUpperLayer
vector 1829  CAIN.ueD2DTx[18].tcp  tcpRcvQueueBytes  ETV
vector 1816  CAIN.ueD2DTx[18].tcp  "advertised window"  ETV
vector 1815  CAIN.ueD2DTx[18].tcp  "receive window"  ETV
vector 1818  CAIN.ueD2DTx[18].tcp  "sent ack"  ETV
vector 781  CAIN.ueD2DTx[18].nic.pdcpRrc  receivedPacketFromUpperLayer:vector(packetBytes)  ETV
attr interpolationmode  none
attr source  receivedPacketFromUpperLayer
vector 784  CAIN.ueD2DTx[18].nic.pdcpRrc  sentPacketToLowerLayer:vector(packetBytes)  ETV
attr interpolationmode  none
attr source  sentPacketToLowerLayer
vector 785  CAIN.ueD2DTx[18].nic.mac  receivedPacketFromUpperLayer:vector(packetBytes)  ETV
attr interpolationmode  none
attr source  receivedPacketFromUpperLayer
vector 794  CAIN.ueD2DTx[18].nic.mac  CainMessageSent:vector  ETV
attr interpolationmode  none
attr title  "# of Sent CAIN message, vector"
vector 1853  CAIN.ueD2DTx[14].tcp  tcpRcvQueueBytes  ETV
vector 1840  CAIN.ueD2DTx[14].tcp  "advertised window"  ETV
vector 1839  CAIN.ueD2DTx[14].tcp  "receive window"  ETV
vector 1842  CAIN.ueD2DTx[14].tcp  "sent ack"  ETV
vector 653  CAIN.ueD2DTx[14].nic.pdcpRrc  receivedPacketFromUpperLayer:vector(packetBytes)  ETV
attr interpolationmode  none
attr source  receivedPacketFromUpperLayer
vector 656  CAIN.ueD2DTx[14].nic.pdcpRrc  sentPacketToLowerLayer:vector(packetBytes)  ETV
attr interpolationmode  none
attr source  sentPacketToLowerLayer
vector 657  CAIN.ueD2DTx[14].nic.mac  receivedPacketFromUpperLayer:vector(packetBytes)  ETV
attr interpolationmode  none
attr source  receivedPacketFromUpperLayer
vector 667  CAIN.ueD2DTx[14].nic.mac  CainHopMessageSent:vector  ETV
attr interpolationmode  none
attr title  "# of Sent CAIN hop message, vector"
vector 660  CAIN.ueD2DTx[14].nic.mac  sentPacketToLowerLayer:vector(packetBytes)  ETV
attr interpolationmode  none
attr source  sentPacketToLowerLayer
vector 154  CAIN.eNodeB1.nic.mac  receivedPacketFromLowerLayer:vector(packetBytes)  ETV
attr interpolationmode  none
attr source  receivedPacketFromLowerLayer
vector 1877  CAIN.ueD2DTx[11].tcp  tcpRcvQueueBytes  ETV
vector 1864  CAIN.ueD2DTx[11].tcp  "advertised window"  ETV
vector 1863  CAIN.ueD2DTx[11].tcp  "receive window"  ETV
vector 1866  CAIN.ueD2DTx[11].tcp  "sent ack"  ETV
vector 557  CAIN.ueD2DTx[11].nic.pdcpRrc  receivedPacketFromUpperLayer:vector(packetBytes)  ETV
attr interpolationmode  none
attr source  receivedPacketFromUpperLayer
vector 560  CAIN.ueD2DTx[11].nic.pdcpRrc  sentPacketToLowerLayer:vector(packetBytes)  ETV
attr interpolationmode  none
attr source  sentPacketToLowerLayer
vector 561  CAIN.ueD2DTx[11].nic.mac  receivedPacketFromUpperLayer:vector(packetBytes)  ETV
attr interpolationmode  none
attr source  receivedPacketFromUpperLayer
vector 696  CAIN.ueD2DTx[15].nic.mac  DropedCainMessage:vector  ETV
attr interpolationmode  none
attr title  "Droped CAIN message due to RB not available, vector"
vector 947  CAIN.ueD2DTx[23].nic.mac  sentPacketToUpperLayer:vector(packetBytes)  ETV
attr interpolationmode  none
attr source  sentPacketToUpperLayer
vector 242  CAIN.ueD2DTx[1].nic.mac  receivedPacketFromLowerLayer:vector(packetBytes)  ETV
attr interpolationmode  none
attr source  receivedPacketFromLowerLayer
vector 244  CAIN.ueD2DTx[1].nic.mac  sentPacketToLowerLayer:vector(packetBytes)  ETV
attr interpolationmode  none
attr source  sentPacketToLowerLayer
vector 248  CAIN.ueD2DTx[1].nic.mac  DropedCainMessage:vector  ETV
attr interpolationmode  none
attr title  "Droped CAIN message due to RB not available, vector"
vector 1901  CAIN.ueD2DTx[4].tcp  tcpRcvQueueBytes  ETV
vector 1888  CAIN.ueD2DTx[4].tcp  "advertised window"  ETV
vector 1887  CAIN.ueD2DTx[4].tcp  "receive window"  ETV
vector 1890  CAIN.ueD2DTx[4].tcp  "sent ack"  ETV
vector 333  CAIN.ueD2DTx[4].nic.pdcpRrc  receivedPacketFromUpperLayer:vector(packetBytes)  ETV
attr interpolationmode  none
attr source  receivedPacketFromUpperLayer
vector 336  CAIN.ueD2DTx[4].nic.pdcpRrc  sentPacketToLowerLayer:vector(packetBytes)  ETV
attr interpolationmode  none
attr source  sentPacketToLowerLayer
vector 337  CAIN.ueD2DTx[4].nic.mac  receivedPacketFromUpperLayer:vector(packetBytes)  ETV
attr interpolationmode  none
attr source  receivedPacketFromUpperLayer
vector 340  CAIN.ueD2DTx[4].nic.mac  sentPacketToLowerLayer:vector(packetBytes)  ETV
attr interpolationmode  none
attr source  sentPacketToLowerLayer
vector 338  CAIN.ueD2DTx[4].nic.mac  receivedPacketFromLowerLayer:vector(packetBytes)  ETV
attr interpolationmode  none
attr source  receivedPacketFromLowerLayer
vector 339  CAIN.ueD2DTx[4].nic.mac  sentPacketToUpperLayer:vector(packetBytes)  ETV
attr interpolationmode  none
attr source  sentPacketToUpperLayer
vector 1925  CAIN.ueD2DTx[12].tcp  tcpRcvQueueBytes  ETV
vector 1912  CAIN.ueD2DTx[12].tcp  "advertised window"  ETV
vector 1911  CAIN.ueD2DTx[12].tcp  "receive window"  ETV
vector 1914  CAIN.ueD2DTx[12].tcp  "sent ack"  ETV
vector 589  CAIN.ueD2DTx[12].nic.pdcpRrc  receivedPacketFromUpperLayer:vector(packetBytes)  ETV
attr interpolationmode  none
attr source  receivedPacketFromUpperLayer
vector 592  CAIN.ueD2DTx[12].nic.pdcpRrc  sentPacketToLowerLayer:vector(packetBytes)  ETV
attr interpolationmode  none
attr source  sentPacketToLowerLayer
vector 593  CAIN.ueD2DTx[12].nic.mac  receivedPacketFromUpperLayer:vector(packetBytes)  ETV
attr interpolationmode  none
attr source  receivedPacketFromUpperLayer
vector 603  CAIN.ueD2DTx[12].nic.mac  CainHopMessageSent:vector  ETV
attr interpolationmode  none
attr title  "# of Sent CAIN hop message, vector"
vector 596  CAIN.ueD2DTx[12].nic.mac  sentPacketToLowerLayer:vector(packetBytes)  ETV
attr interpolationmode  none
attr source  sentPacketToLowerLayer
vector 1949  CAIN.ueD2DTx[6].tcp  tcpRcvQueueBytes  ETV
vector 1936  CAIN.ueD2DTx[6].tcp  "advertised window"  ETV
vector 1935  CAIN.ueD2DTx[6].tcp  "receive window"  ETV
vector 1938  CAIN.ueD2DTx[6].tcp  "sent ack"  ETV
vector 397  CAIN.ueD2DTx[6].nic.pdcpRrc  receivedPacketFromUpperLayer:vector(packetBytes)  ETV
attr interpolationmode  none
attr source  receivedPacketFromUpperLayer
vector 400  CAIN.ueD2DTx[6].nic.pdcpRrc  sentPacketToLowerLayer:vector(packetBytes)  ETV
attr interpolationmode  none
attr source  sentPacketToLowerLayer
vector 401  CAIN.ueD2DTx[6].nic.mac  receivedPacketFromUpperLayer:vector(packetBytes)  ETV
attr interpolationmode  none
attr source  receivedPacketFromUpperLayer
vector 411  CAIN.ueD2DTx[6].nic.mac  CainHopMessageSent:vector  ETV
attr interpolationmode  none
attr title  "# of Sent CAIN hop message, vector"
vector 404  CAIN.ueD2DTx[6].nic.mac  sentPacketToLowerLayer:vector(packetBytes)  ETV
attr interpolationmode  none
attr source  sentPacketToLowerLayer
vector 1973  CAIN.ueD2DTx[1].tcp  tcpRcvQueueBytes  ETV
vector 1960  CAIN.ueD2DTx[1].tcp  "advertised window"  ETV
vector 1959  CAIN.ueD2DTx[1].tcp  "receive window"  ETV
vector 1962  CAIN.ueD2DTx[1].tcp  "sent ack"  ETV
vector 237  CAIN.ueD2DTx[1].nic.pdcpRrc  receivedPacketFromUpperLayer:vector(packetBytes)  ETV
attr interpolationmode  none
attr source  receivedPacketFromUpperLayer
vector 240  CAIN.ueD2DTx[1].nic.pdcpRrc  sentPacketToLowerLayer:vector(packetBytes)  ETV
attr interpolationmode  none
attr source  sentPacketToLowerLayer
vector 241  CAIN.ueD2DTx[1].nic.mac  receivedPacketFromUpperLayer:vector(packetBytes)  ETV
attr interpolationmode  none
attr source  receivedPacketFromUpperLayer
vector 1997  CAIN.ueD2DTx[15].tcp  tcpRcvQueueBytes  ETV
vector 1984  CAIN.ueD2DTx[15].tcp  "advertised window"  ETV
vector 1983  CAIN.ueD2DTx[15].tcp  "receive window"  ETV
vector 1986  CAIN.ueD2DTx[15].tcp  "sent ack"  ETV
vector 685  CAIN.ueD2DTx[15].nic.pdcpRrc  receivedPacketFromUpperLayer:vector(packetBytes)  ETV
attr interpolationmode  none
attr source  receivedPacketFromUpperLayer
vector 688  CAIN.ueD2DTx[15].nic.pdcpRrc  sentPacketToLowerLayer:vector(packetBytes)  ETV
attr interpolationmode  none
attr source  sentPacketToLowerLayer
vector 689  CAIN.ueD2DTx[15].nic.mac  receivedPacketFromUpperLayer:vector(packetBytes)  ETV
attr interpolationmode  none
attr source  receivedPacketFromUpperLayer
vector 243  CAIN.ueD2DTx[1].nic.mac  sentPacketToUpperLayer:vector(packetBytes)  ETV
attr interpolationmode  none
attr source  sentPacketToUpperLayer
vector 2021  CAIN.ueD2DTx[2].tcp  tcpRcvQueueBytes  ETV
vector 2008  CAIN.ueD2DTx[2].tcp  "advertised window"  ETV
vector 2007  CAIN.ueD2DTx[2].tcp  "receive window"  ETV
vector 2010  CAIN.ueD2DTx[2].tcp  "sent ack"  ETV
vector 269  CAIN.ueD2DTx[2].nic.pdcpRrc  receivedPacketFromUpperLayer:vector(packetBytes)  ETV
attr interpolationmode  none
attr source  receivedPacketFromUpperLayer
vector 272  CAIN.ueD2DTx[2].nic.pdcpRrc  sentPacketToLowerLayer:vector(packetBytes)  ETV
attr interpolationmode  none
attr source  sentPacketToLowerLayer
vector 273  CAIN.ueD2DTx[2].nic.mac  receivedPacketFromUpperLayer:vector(packetBytes)  ETV
attr interpolationmode  none
attr source  receivedPacketFromUpperLayer
vector 2045  CAIN.ueD2DTx[19].tcp  tcpRcvQueueBytes  ETV
vector 2032  CAIN.ueD2DTx[19].tcp  "advertised window"  ETV
vector 2031  CAIN.ueD2DTx[19].tcp  "receive window"  ETV
vector 2034  CAIN.ueD2DTx[19].tcp  "sent ack"  ETV
vector 813  CAIN.ueD2DTx[19].nic.pdcpRrc  receivedPacketFromUpperLayer:vector(packetBytes)  ETV
attr interpolationmode  none
attr source  receivedPacketFromUpperLayer
vector 816  CAIN.ueD2DTx[19].nic.pdcpRrc  sentPacketToLowerLayer:vector(packetBytes)  ETV
attr interpolationmode  none
attr source  sentPacketToLowerLayer
vector 817  CAIN.ueD2DTx[19].nic.mac  receivedPacketFromUpperLayer:vector(packetBytes)  ETV
attr interpolationmode  none
attr source  receivedPacketFromUpperLayer
vector 691  CAIN.ueD2DTx[15].nic.mac  sentPacketToUpperLayer:vector(packetBytes)  ETV
attr interpolationmode  none
attr source  sentPacketToUpperLayer
vector 827  CAIN.ueD2DTx[19].nic.mac  CainHopMessageSent:vector  ETV
attr interpolationmode  none
attr title  "# of Sent CAIN hop message, vector"
vector 820  CAIN.ueD2DTx[19].nic.mac  sentPacketToLowerLayer:vector(packetBytes)  ETV
attr interpolationmode  none
attr source  sentPacketToLowerLayer
vector 275  CAIN.ueD2DTx[2].nic.mac  sentPacketToUpperLayer:vector(packetBytes)  ETV
attr interpolationmode  none
attr source  sentPacketToUpperLayer
vector 2069  CAIN.ueD2DTx[3].tcp  tcpRcvQueueBytes  ETV
vector 2056  CAIN.ueD2DTx[3].tcp  "advertised window"  ETV
vector 2055  CAIN.ueD2DTx[3].tcp  "receive window"  ETV
vector 2058  CAIN.ueD2DTx[3].tcp  "sent ack"  ETV
vector 301  CAIN.ueD2DTx[3].nic.pdcpRrc  receivedPacketFromUpperLayer:vector(packetBytes)  ETV
attr interpolationmode  none
attr source  receivedPacketFromUpperLayer
vector 304  CAIN.ueD2DTx[3].nic.pdcpRrc  sentPacketToLowerLayer:vector(packetBytes)  ETV
attr interpolationmode  none
attr source  sentPacketToLowerLayer
vector 305  CAIN.ueD2DTx[3].nic.mac  receivedPacketFromUpperLayer:vector(packetBytes)  ETV
attr interpolationmode  none
attr source  receivedPacketFromUpperLayer
vector 308  CAIN.ueD2DTx[3].nic.mac  sentPacketToLowerLayer:vector(packetBytes)  ETV
attr interpolationmode  none
attr source  sentPacketToLowerLayer
vector 306  CAIN.ueD2DTx[3].nic.mac  receivedPacketFromLowerLayer:vector(packetBytes)  ETV
attr interpolationmode  none
attr source  receivedPacketFromLowerLayer
vector 307  CAIN.ueD2DTx[3].nic.mac  sentPacketToUpperLayer:vector(packetBytes)  ETV
attr interpolationmode  none
attr source  sentPacketToUpperLayer
1268	175	0.0000001228	0
1379	260	0.0000006304	65535
1380	260	0.0000006304	8940
1381	260	0.0000006304	0.3725
1377	260	0.0000006304	3
1384	260	0.0000006304	1
1396	188	0.0000003096	0
1352	260	0.0000006304	65535
1353	260	0.0000006304	8940
1354	260	0.0000006304	0.3725
1350	260	0.0000006304	3
1357	260	0.0000006304	1
1369	188	0.0000003096	0
1070	260	0.0000006304	65535
1071	260	0.0000006304	8940
1072	260	0.0000006304	0.3725
1068	260	0.0000006304	3
1068	327	0.0000008564	1
1069	327	0.0000008564	2.26e-07
1074	4151	0.0570000972	2000
1074	4170	0.0570003844	2001
1074	4170	0.0570003844	2002
1074	4170	0.0570003844	2003
1074	4170	0.0570003844	2004
1074	4170	0.0570003844	2005
1074	4170	0.0570003844	2006
1074	4170	0.0570003844	2007
1074	19291	0.2570015836	2008
1074	19291	0.2570015836	2009
1074	19291	0.2570015836	2010
1074	19291	0.2570015836	2011
1074	19291	0.2570015836	2012
1074	19291	0.2570015836	2013
1074	19291	0.2570015836	2014
1074	19291	0.2570015836	2015
1074	19291	0.2570015836	2016
1074	19291	0.2570015836	2017
1074	19291	0.2570015836	2018
1074	19291	0.2570015836	2019
1074	19291	0.2570015836	2020
1074	19291	0.2570015836	2021
1074	19291	0.2570015836	2022
1074	19291	0.2570015836	2023
1074	19291	0.2570015836	2024
1074	19291	0.2570015836	2025
1074	19291	0.2570015836	2026
1074	19291	0.2570015836	2027
1074	19291	0.2570015836	2028
1074	19291	0.2570015836	2029
1074	19291	0.2570015836	2030
1074	19291	0.2570015836	2031
1074	19291	0.2570015836	2032
1074	19291	0.2570015836	2033
1074	19291	0.2570015836	2034
1074	19291	0.2570015836	2035
1074	19291	0.2570015836	2036
1074	19291	0.2570015836	2037
1074	19291	0.2570015836	2038
1074	19291	0.2570015836	2039
1074	19291	0.2570015836	2040
1074	19291	0.2570015836	2041
1074	19291	0.2570015836	2042
1074	19291	0.2570015836	2043
1074	19291	0.2570015836	2044
1074	19291	0.2570015836	2045
1074	19291	0.2570015836	2046
1074	19291	0.2570015836	2047
1074	19291	0.2570015836	2048
1074	19291	0.2570015836	2049
1074	19291	0.2570015836	2050
1074	19291	0.2570015836	2051
1074	19291	0.2570015836	2052
1074	19291	0.2570015836	2053
1074	19291	0.2570015836	2054
1074	19291	0.2570015836	2055
1074	19291	0.2570015836	2056
1074	19291	0.2570015836	2057
1074	19291	0.2570015836	2058
1074	19291	0.2570015836	2059
1074	19291	0.2570015836	2060
1074	19291	0.2570015836	2061
1074	19291	0.2570015836	2062
1074	19291	0.2570015836	2063
1074	19291	0.2570015836	2064
1074	19291	0.2570015836	2065
1074	19291	0.2570015836	2066
1074	19291	0.2570015836	2067
1074	19291	0.2570015836	2068
1074	19291	0.2570015836	2069
1074	19291	0.2570015836	2070
1074	19291	0.2570015836	2071
1077	232	0.000000552	1
1077	246	0.000000596	2
1076	232	0.000000552	1
1076	246	0.000000596	2
1078	327	0.0000008564	1
1078	333	0.0000009004	2
1087	156	0	0
1046	4151	0.0570000972	65533
1046	19277	0.2570003844	65535
1046	33691	0.4570015836	65535
1050	4151	0.0570000972	2
1050	4154	0.0570000972	2
1050	4178	0.0570003844	14
1050	4179	0.0570003844	0
1050	4180	0.0570003844	0
1050	4181	0.0570003844	0
1050	4182	0.0570003844	0
1050	4183	0.0570003844	0
1050	4184	0.0570003844	0
1050	19277	0.2570003844	0
1050	19356	0.2570015836	128
1050	19357	0.2570015836	0
1050	19358	0.2570015836	0
1050	19359	0.2570015836	0
1050	19360	0.2570015836	0
1050	19361	0.2570015836	0
1050	19362	0.2570015836	0
1050	19363	0.2570015836	0
1050	19364	0.2570015836	0
1050	19365	0.2570015836	0
1050	19366	0.2570015836	0
1050	19367	0.2570015836	0
1050	19368	0.2570015836	0
1050	19369	0.2570015836	0
1050	19370	0.2570015836	0
1050	19371	0.2570015836	0
1050	19372	0.2570015836	0
1050	19373	0.2570015836	0
1050	19374	0.2570015836	0
1050	19375	0.2570015836	0
1050	19376	0.2570015836	0
1050	19377	0.2570015836	0
1050	19378	0.2570015836	0
1050	19379	0.2570015836	0
1050	19380	0.2570015836	0
1050	19381	0.2570015836	0
1050	19382	0.2570015836	0
1050	19383	0.2570015836	0
1050	19384	0.2570015836	0
1050	19385	0.2570015836	0
1050	19386	0.2570015836	0
1050	19387	0.2570015836	0
1050	19388	0.2570015836	0
1050	19389	0.2570015836	0
1050	19390	0.2570015836	0
1050	19391	0.2570015836	0
1050	19392	0.2570015836	0
1050	19393	0.2570015836	0
1050	19394	0.2570015836	0
1050	19395	0.2570015836	0
1050	19396	0.2570015836	0
1050	19397	0.2570015836	0
1050	19398	0.2570015836	0
1050	19399	0.2570015836	0
1050	19400	0.2570015836	0
1050	19401	0.2570015836	0
1050	19402	0.2570015836	0
1050	19403	0.2570015836	0
1050	19404	0.2570015836	0
1050	19405	0.2570015836	0
1050	19406	0.2570015836	0
1050	19407	0.2570015836	0
1050	19408	0.2570015836	0
1050	19409	0.2570015836	0
1050	19410	0.2570015836	0
1050	19411	0.2570015836	0
1050	19412	0.2570015836	0
1050	19413	0.2570015836	0
1050	19414	0.2570015836	0
1050	19415	0.2570015836	0
1050	19416	0.2570015836	0
1050	19417	0.2570015836	0
1050	19418	0.2570015836	0
1050	19419	0.2570015836	0
1050	33691	0.4570015836	0
1055	4151	0.0570000972	0
1055	19277	0.2570003844	0
1055	33691	0.4570015836	0
1056	4151	0.0570000972	0
1056	19277	0.2570003844	0
1056	33691	0.4570015836	0
1057	4151	0.0570000972	0
1057	19277	0.2570003844	0
1057	33691	0.4570015836	0
1058	4151	0.0570000972	0
1058	19277	0.2570003844	0
1058	33691	0.4570015836	0
1059	4151	0.0570000972	0
1059	19277	0.2570003844	0
1059	33691	0.4570015836	0
1060	4151	0.0570000972	0
1060	19277	0.2570003844	0
1060	33691	0.4570015836	0
1061	4151	0.0570000972	0
1061	19277	0.2570003844	0
1061	33691	0.4570015836	0
1062	4151	0.0570000972	16
1062	19277	0.2570003844	16
1062	33691	0.4570015836	16
1064	188	0.0000003096	65535
1066	4154	0.0570000972	9.72e-08
1066	4178	0.0570003844	1.932e-07
1066	4178	0.0570003844	1.932e-07
1066	4178	0.0570003844	1.932e-07
1066	4178	0.0570003844	1.932e-07
1066	4178	0.0570003844	1.932e-07
1066	4178	0.0570003844	1.932e-07
1066	4178	0.0570003844	1.932e-07
1066	19356	0.2570015836	1.1052e-06
1066	19356	0.2570015836	1.1052e-06
1066	19356	0.2570015836	1.1052e-06
1066	19356	0.2570015836	1.1052e-06
1066	19356	0.2570015836	1.1052e-06
1066	19356	0.2570015836	1.1052e-06
1066	19356	0.2570015836	1.1052e-06
1066	19356	0.2570015836	1.1052e-06
1066	19356	0.2570015836	1.1052e-06
1066	19356	0.2570015836	1.1052e-06
1066	19356	0.2570015836	1.1052e-06
1066	19356	0.2570015836	1.1052e-06
1066	19356	0.2570015836	1.1052e-06
1066	19356	0.2570015836	1.1052e-06
1066	19356	0.2570015836	1.1052e-06
1066	19356	0.2570015836	1.1052e-06
1066	19356	0.2570015836	1.1052e-06
1066	19356	0.2570015836	1.1052e-06
1066	19356	0.2570015836	1.1052e-06
1066	19356	0.2570015836	1.1052e-06
1066	19356	0.2570015836	1.1052e-06
1066	19356	0.2570015836	1.1052e-06
1066	19356	0.2570015836	1.1052e-06
1066	19356	0.2570015836	1.1052e-06
1066	19356	0.2570015836	1.1052e-06
1066	19356	0.2570015836	1.1052e-06
1066	19356	0.2570015836	1.1052e-06
1066	19356	0.2570015836	1.1052e-06
1066	19356	0.2570015836	1.1052e-06
1066	19356	0.2570015836	1.1052e-06
1066	19356	0.2570015836	1.1052e-06
1066	19356	0.2570015836	1.1052e-06
1066	19356	0.2570015836	1.1052e-06
1066	19356	0.2570015836	1.1052e-06
1066	19356	0.2570015836	1.1052e-06
1066	19356	0.2570015836	1.1052e-06
1066	19356	0.2570015836	1.1052e-06
1066	19356	0.2570015836	1.1052e-06
1066	19356	0.2570015836	1.1052e-06
1066	19356	0.2570015836	1.1052e-06
1066	19356	0.2570015836	1.1052e-06
1066	19356	0.2570015836	1.1052e-06
1066	19356	0.2570015836	1.1052e-06
1066	19356	0.2570015836	1.1052e-06
1066	19356	0.2570015836	1.1052e-06
1066	19356	0.2570015836	1.1052e-06
1066	19356	0.2570015836	1.1052e-06
1066	19356	0.2570015836	1.1052e-06
1066	19356	0.2570015836	1.1052e-06
1066	19356	0.2570015836	1.1052e-06
1066	19356	0.2570015836	1.1052e-06
1066	19356	0.2570015836	1.1052e-06
1066	19356	0.2570015836	1.1052e-06
1066	19356	0.2570015836	1.1052e-06
1066	19356	0.2570015836	1.1052e-06
1066	19356	0.2570015836	1.1052e-06
1066	19356	0.2570015836	1.1052e-06
1066	19356	0.2570015836	1.1052e-06
1066	19356	0.2570015836	1.1052e-06
1066	19356	0.2570015836	1.1052e-06
1066	19356	0.2570015836	1.1052e-06
1066	19356	0.2570015836	1.1052e-06
1066	19356	0.2570015836	1.1052e-06
1066	19356	0.2570015836	1.1052e-06
1067	156	0	0
1298	203	0.000000458	65535
1299	203	0.000000458	8940
1300	203	0.000000458	0.3725
1296	203	0.000000458	3
1303	203	0.000000458	1
1311	729	0.0070001912	0
1311	15483	0.2070004784	0
1311	30174	0.4070016776	0
1312	729	0.0070001912	0
1312	15483	0.2070004784	0
1312	30174	0.4070016776	0
1313	729	0.0070001912	0
1313	15483	0.2070004784	0
1313	30174	0.4070016776	0
1315	175	0.0000001228	0
1271	203	0.000000458	65535
1272	203	0.000000458	8940
1273	203	0.000000458	0.3725
1269	203	0.000000458	3
1276	203	0.000000458	1
1284	729	0.0070001912	0
1284	15483	0.2070004784	0
1284	30174	0.4070016776	0
1285	729	0.0070001912	0
1285	15483	0.2070004784	0
1285	30174	0.4070016776	0
1286	729	0.0070001912	0
1286	15483	0.2070004784	0
1286	30174	0.4070016776	0
1288	175	0.0000001228	0
1325	203	0.000000458	65535
1325	86434	1.2070004784	65535
1326	203	0.000000458	8940
1326	86434	1.2070004784	8940
1327	203	0.000000458	0.3725
1327	86434	1.2070004784	23.84
1323	203	0.000000458	3
1323	280	0.0000006744	1
1323	729	0.0070001912	1
1323	15483	0.2070004784	1
1323	30174	0.4070016776	1
1324	280	0.0000006744	2.164e-07
1324	729	0.0070001912	1.912e-07
1324	15483	0.2070004784	0.2000002872
1324	30174	0.4070016776	0.2000011992
1328	674	0.007	2000
1328	729	0.0070001912	2001
1328	729	0.0070001912	2002
1328	729	0.0070001912	2003
1328	729	0.0070001912	2004
1328	729	0.0070001912	2005
1328	729	0.0070001912	2006
1328	729	0.0070001912	2007
1328	15483	0.2070004784	2008
1328	15483	0.2070004784	2009
1328	15483	0.2070004784	2010
1328	15483	0.2070004784	2011
1328	15483	0.2070004784	2012
1328	15483	0.2070004784	2013
1328	15483	0.2070004784	2014
1328	15483	0.2070004784	2015
1328	15483	0.2070004784	2016
1328	15483	0.2070004784	2017
1328	15483	0.2070004784	2018
1328	15483	0.2070004784	2019
1328	15483	0.2070004784	2020
1328	15483	0.2070004784	2021
1328	15483	0.2070004784	2022
1328	15483	0.2070004784	2023
1328	15483	0.2070004784	2024
1328	15483	0.2070004784	2025
1328	15483	0.2070004784	2026
1328	15483	0.2070004784	2027
1328	15483	0.2070004784	2028
1328	15483	0.2070004784	2029
1328	15483	0.2070004784	2030
1328	15483	0.2070004784	2031
1328	15483	0.2070004784	2032
1328	15483	0.2070004784	2033
1328	15483	0.2070004784	2034
1328	15483	0.2070004784	2035
1328	15483	0.2070004784	2036
1328	15483	0.2070004784	2037
1328	15483	0.2070004784	2038
1328	15483	0.2070004784	2039
1328	15483	0.2070004784	2040
1328	15483	0.2070004784	2041
1328	15483	0.2070004784	2042
1328	15483	0.2070004784	2043
1328	15483	0.2070004784	2044
1328	15483	0.2070004784	2045
1328	15483	0.2070004784	2046
1328	15483	0.2070004784	2047
1328	15483	0.2070004784	2048
1328	15483	0.2070004784	2049
1328	15483	0.2070004784	2050
1328	15483	0.2070004784	2051
1328	15483	0.2070004784	2052
1328	15483	0.2070004784	2053
1328	15483	0.2070004784	2054
1328	15483	0.2070004784	2055
1328	15483	0.2070004784	2056
1328	15483	0.2070004784	2057
1328	15483	0.2070004784	2058
1328	15483	0.2070004784	2059
1328	15483	0.2070004784	2060
1328	15483	0.2070004784	2061
1328	15483	0.2070004784	2062
1328	15483	0.2070004784	2063
1328	15483	0.2070004784	2064
1328	15483	0.2070004784	2065
1328	15483	0.2070004784	2066
1328	15483	0.2070004784	2067
1328	15483	0.2070004784	2068
1328	15483	0.2070004784	2069
1328	15483	0.2070004784	2070
1328	15483	0.2070004784	2071
1332	298	0.0000007624	1
1332	312	0.0000008064	2
1331	298	0.0000007624	1
1331	312	0.0000008064	2
1333	280	0.0000006744	1
1333	290	0.0000007184	2
1334	674	0.007	2
1334	729	0.0070001912	0
1334	729	0.0070001912	2
1334	729	0.0070001912	4
1334	729	0.0070001912	6
1334	729	0.0070001912	8
1334	729	0.0070001912	10
1334	729	0.0070001912	12
1334	729	0.0070001912	14
1334	15483	0.2070004784	12
1334	15483	0.2070004784	10
1334	15483	0.2070004784	8
1334	15483	0.2070004784	6
1334	15483	0.2070004784	4
1334	15483	0.2070004784	2
1334	15483	0.2070004784	0
1334	15483	0.2070004784	2
1334	15483	0.2070004784	4
1334	15483	0.2070004784	6
1334	15483	0.2070004784	8
1334	15483	0.2070004784	10
1334	15483	0.2070004784	12
1334	15483	0.2070004784	14
1334	15483	0.2070004784	16
1334	15483	0.2070004784	18
1334	15483	0.2070004784	20
1334	15483	0.2070004784	22
1334	15483	0.2070004784	24
1334	15483	0.2070004784	26
1334	15483	0.2070004784	28
1334	15483	0.2070004784	30
1334	15483	0.2070004784	32
1334	15483	0.2070004784	34
1334	15483	0.2070004784	36
1334	15483	0.2070004784	38
1334	15483	0.2070004784	40
1334	15483	0.2070004784	42
1334	15483	0.2070004784	44
1334	15483	0.2070004784	46
1334	15483	0.2070004784	48
1334	15483	0.2070004784	50
1334	15483	0.2070004784	52
1334	15483	0.2070004784	54
1334	15483	0.2070004784	56
1334	15483	0.2070004784	58
1334	15483	0.2070004784	60
1334	15483	0.2070004784	62
1334	15483	0.2070004784	64
1334	15483	0.2070004784	66
1334	15483	0.2070004784	68
1334	15483	0.2070004784	70
1334	15483	0.2070004784	72
1334	15483	0.2070004784	74
1334	15483	0.2070004784	76
1334	15483	0.2070004784	78
1334	15483	0.2070004784	80
1334	15483	0.2070004784	82
1334	15483	0.2070004784	84
1334	15483	0.2070004784	86
1334	15483	0.2070004784	88
1334	15483	0.2070004784	90
1334	15483	0.2070004784	92
1334	15483	0.2070004784	94
1334	15483	0.2070004784	96
1334	15483	0.2070004784	98
1334	15483	0.2070004784	100
1334	15483	0.2070004784	102
1334	15483	0.2070004784	104
1334	15483	0.2070004784	106
1334	15483	0.2070004784	108
1334	15483	0.2070004784	110
1334	15483	0.2070004784	112
1334	15483	0.2070004784	114
1334	15483	0.2070004784	116
1334	15483	0.2070004784	118
1334	15483	0.2070004784	120
1334	15483	0.2070004784	122
1334	15483	0.2070004784	124
1334	15483	0.2070004784	126
1334	15483	0.2070004784	128
1334	30174	0.4070016776	126
1334	30174	0.4070016776	124
1334	30174	0.4070016776	122
1334	30174	0.4070016776	120
1334	30174	0.4070016776	118
1334	30174	0.4070016776	116
1334	30174	0.4070016776	114
1334	30174	0.4070016776	112
1334	30174	0.4070016776	110
1334	30174	0.4070016776	108
1334	30174	0.4070016776	106
1334	30174	0.4070016776	104
1334	30174	0.4070016776	102
1334	30174	0.4070016776	100
1334	30174	0.4070016776	98
1334	30174	0.4070016776	96
1334	30174	0.4070016776	94
1334	30174	0.4070016776	92
1334	30174	0.4070016776	90
1334	30174	0.4070016776	88
1334	30174	0.4070016776	86
1334	30174	0.4070016776	84
1334	30174	0.4070016776	82
1334	30174	0.4070016776	80
1334	30174	0.4070016776	78
1334	30174	0.4070016776	76
1334	30174	0.4070016776	74
1334	30174	0.4070016776	72
1334	30174	0.4070016776	70
1334	30174	0.4070016776	68
1334	30174	0.4070016776	66
1334	30174	0.4070016776	64
1334	30174	0.4070016776	62
1334	30174	0.4070016776	60
1334	30174	0.4070016776	58
1334	30174	0.4070016776	56
1334	30174	0.4070016776	54
1334	30174	0.4070016776	52
1334	30174	0.4070016776	50
1334	30174	0.4070016776	48
1334	30174	0.4070016776	46
1334	30174	0.4070016776	44
1334	30174	0.4070016776	42
1334	30174	0.4070016776	40
1334	30174	0.4070016776	38
1334	30174	0.4070016776	36
1334	30174	0.4070016776	34
1334	30174	0.4070016776	32
1334	30174	0.4070016776	30
1334	30174	0.4070016776	28
1334	30174	0.4070016776	26
1334	30174	0.4070016776	24
1334	30174	0.4070016776	22
1334	30174	0.4070016776	20
1334	30174	0.4070016776	18
1334	30174	0.4070016776	16
1334	30174	0.4070016776	14
1334	30174	0.4070016776	12
1334	30174	0.4070016776	10
1334	30174	0.4070016776	8
1334	30174	0.4070016776	6
1334	30174	0.4070016776	4
1334	30174	0.4070016776	2
1334	30174	0.4070016776	0
1335	674	0.007	2
1335	729	0.0070001912	0
1335	729	0.0070001912	2
1335	729	0.0070001912	4
1335	729	0.0070001912	6
1335	729	0.0070001912	8
1335	729	0.0070001912	10
1335	729	0.0070001912	12
1335	729	0.0070001912	14
1335	15483	0.2070004784	12
1335	15483	0.2070004784	10
1335	15483	0.2070004784	8
1335	15483	0.2070004784	6
1335	15483	0.2070004784	4
1335	15483	0.2070004784	2
1335	15483	0.2070004784	0
1335	15483	0.2070004784	2
1335	15483	0.2070004784	4
1335	15483	0.2070004784	6
1335	15483	0.2070004784	8
1335	15483	0.2070004784	10
1335	15483	0.2070004784	12
1335	15483	0.2070004784	14
1335	15483	0.2070004784	16
1335	15483	0.2070004784	18
1335	15483	0.2070004784	20
1335	15483	0.2070004784	22
1335	15483	0.2070004784	24
1335	15483	0.2070004784	26
1335	15483	0.2070004784	28
1335	15483	0.2070004784	30
1335	15483	0.2070004784	32
1335	15483	0.2070004784	34
1335	15483	0.2070004784	36
1335	15483	0.2070004784	38
1335	15483	0.2070004784	40
1335	15483	0.2070004784	42
1335	15483	0.2070004784	44
1335	15483	0.2070004784	46
1335	15483	0.2070004784	48
1335	15483	0.2070004784	50
1335	15483	0.2070004784	52
1335	15483	0.2070004784	54
1335	15483	0.2070004784	56
1335	15483	0.2070004784	58
1335	15483	0.2070004784	60
1335	15483	0.2070004784	62
1335	15483	0.2070004784	64
1335	15483	0.2070004784	66
1335	15483	0.2070004784	68
1335	15483	0.2070004784	70
1335	15483	0.2070004784	72
1335	15483	0.2070004784	74
1335	15483	0.2070004784	76
1335	15483	0.2070004784	78
1335	15483	0.2070004784	80
1335	15483	0.2070004784	82
1335	15483	0.2070004784	84
1335	15483	0.2070004784	86
1335	15483	0.2070004784	88
1335	15483	0.2070004784	90
1335	15483	0.2070004784	92
1335	15483	0.2070004784	94
1335	15483	0.2070004784	96
1335	15483	0.2070004784	98
1335	15483	0.2070004784	100
1335	15483	0.2070004784	102
1335	15483	0.2070004784	104
1335	15483	0.2070004784	106
1335	15483	0.2070004784	108
1335	15483	0.2070004784	110
1335	15483	0.2070004784	112
1335	15483	0.2070004784	114
1335	15483	0.2070004784	116
1335	15483	0.2070004784	118
1335	15483	0.2070004784	120
1335	15483	0.2070004784	122
1335	15483	0.2070004784	124
1335	15483	0.2070004784	126
1335	15483	0.2070004784	128
1335	30174	0.4070016776	126
1335	30174	0.4070016776	124
1335	30174	0.4070016776	122
1335	30174	0.4070016776	120
1335	30174	0.4070016776	118
1335	30174	0.4070016776	116
1335	30174	0.4070016776	114
1335	30174	0.4070016776	112
1335	30174	0.4070016776	110
1335	30174	0.4070016776	108
1335	30174	0.4070016776	106
1335	30174	0.4070016776	104
1335	30174	0.4070016776	102
1335	30174	0.4070016776	100
1335	30174	0.4070016776	98
1335	30174	0.4070016776	96
1335	30174	0.4070016776	94
1335	30174	0.4070016776	92
1335	30174	0.4070016776	90
1335	30174	0.4070016776	88
1335	30174	0.4070016776	86
1335	30174	0.4070016776	84
1335	30174	0.4070016776	82
1335	30174	0.4070016776	80
1335	30174	0.4070016776	78
1335	30174	0.4070016776	76
1335	30174	0.4070016776	74
1335	30174	0.4070016776	72
1335	30174	0.4070016776	70
1335	30174	0.4070016776	68
1335	30174	0.4070016776	66
1335	30174	0.4070016776	64
1335	30174	0.4070016776	62
1335	30174	0.4070016776	60
1335	30174	0.4070016776	58
1335	30174	0.4070016776	56
1335	30174	0.4070016776	54
1335	30174	0.4070016776	52
1335	30174	0.4070016776	50
1335	30174	0.4070016776	48
1335	30174	0.4070016776	46
1335	30174	0.4070016776	44
1335	30174	0.4070016776	42
1335	30174	0.4070016776	40
1335	30174	0.4070016776	38
1335	30174	0.4070016776	36
1335	30174	0.4070016776	34
1335	30174	0.4070016776	32
1335	30174	0.4070016776	30
1335	30174	0.4070016776	28
1335	30174	0.4070016776	26
1335	30174	0.4070016776	24
1335	30174	0.4070016776	22
1335	30174	0.4070016776	20
1335	30174	0.4070016776	18
1335	30174	0.4070016776	16
1335	30174	0.4070016776	14
1335	30174	0.4070016776	12
1335	30174	0.4070016776	10
1335	30174	0.4070016776	8
1335	30174	0.4070016776	6
1335	30174	0.4070016776	4
1335	30174	0.4070016776	2
1335	30174	0.4070016776	0
1338	729	0.0070001912	0
1338	15483	0.2070004784	0
1338	30174	0.4070016776	0
1339	729	0.0070001912	0
1339	15483	0.2070004784	0
1339	30174	0.4070016776	0
1340	729	0.0070001912	0
1340	15483	0.2070004784	0
1340	30174	0.4070016776	0
1341	729	0.0070001912	0
1341	15483	0.2070004784	0
1341	30174	0.4070016776	0
1342	175	0.0000001228	0
1345	729	0.0070001912	2000
1345	15483	0.2070004784	2007
1345	30174	0.4070016776	2071
1347	729	0.0070001912	0
1347	15483	0.2070004784	0
1347	30174	0.4070016776	0
1348	729	0.0070001912	0
1348	15483	0.2070004784	0
1348	30174	0.4070016776	0
1464	729	0.0070001912	0
1464	15483	0.2070004784	0
1464	30174	0.4070016776	0
1465	674	0.007	1
1465	674	0.007	0
1465	675	0.007	1
1465	676	0.007	2
1465	677	0.007	3
1465	678	0.007	4
1465	679	0.007	5
1465	680	0.007	6
1465	681	0.007	7
1465	729	0.0070001912	6
1465	729	0.0070001912	5
1465	729	0.0070001912	4
1465	729	0.0070001912	3
1465	729	0.0070001912	2
1465	729	0.0070001912	1
1465	729	0.0070001912	0
1465	1034	0.013	1
1465	1035	0.013	2
1465	1036	0.013	3
1465	1037	0.013	4
1465	1038	0.013	5
1465	1039	0.013	6
1465	1040	0.013	7
1465	1041	0.013	8
1465	1365	0.019	9
1465	1366	0.019	10
1465	1367	0.019	11
1465	1368	0.019	12
1465	1369	0.019	13
1465	1370	0.019	14
1465	1371	0.019	15
1465	1372	0.019	16
1465	1733	0.025	17
1465	1734	0.025	18
1465	1735	0.025	19
1465	1736	0.025	20
1465	1737	0.025	21
1465	1738	0.025	22
1465	1739	0.025	23
1465	1740	0.025	24
1465	2107	0.031	25
1465	2108	0.031	26
1465	2109	0.031	27
1465	2110	0.031	28
1465	2111	0.031	29
1465	2112	0.031	30
1465	2113	0.031	31
1465	2114	0.031	32
1465	2536	0.037	33
1465	2537	0.037	34
1465	2538	0.037	35
1465	2539	0.037	36
1465	2540	0.037	37
1465	2541	0.037	38
1465	2542	0.037	39
1465	2543	0.037	40
1465	2971	0.043	41
1465	2972	0.043	42
1465	2973	0.043	43
1465	2974	0.043	44
1465	2975	0.043	45
1465	2976	0.043	46
1465	2977	0.043	47
1465	2978	0.043	48
1465	3428	0.049	49
1465	3429	0.049	50
1465	3430	0.049	51
1465	3431	0.049	52
1465	3432	0.049	53
1465	3433	0.049	54
1465	3434	0.049	55
1465	3435	0.049	56
1465	3885	0.055	57
1465	3886	0.055	58
1465	3887	0.055	59
1465	3888	0.055	60
1465	3889	0.055	61
1465	3890	0.055	62
1465	3891	0.055	63
1465	3892	0.055	64
1465	15483	0.2070004784	63
1465	15483	0.2070004784	62
1465	15483	0.2070004784	61
1465	15483	0.2070004784	60
1465	15483	0.2070004784	59
1465	15483	0.2070004784	58
1465	15483	0.2070004784	57
1465	15483	0.2070004784	56
1465	15483	0.2070004784	55
1465	15483	0.2070004784	54
1465	15483	0.2070004784	53
1465	15483	0.2070004784	52
1465	15483	0.2070004784	51
1465	15483	0.2070004784	50
1465	15483	0.2070004784	49
1465	15483	0.2070004784	48
1465	15483	0.2070004784	47
1465	15483	0.2070004784	46
1465	15483	0.2070004784	45
1465	15483	0.2070004784	44
1465	15483	0.2070004784	43
1465	15483	0.2070004784	42
1465	15483	0.2070004784	41
1465	15483	0.2070004784	40
1465	15483	0.2070004784	39
1465	15483	0.2070004784	38
1465	15483	0.2070004784	37
1465	15483	0.2070004784	36
1465	15483	0.2070004784	35
1465	15483	0.2070004784	34
1465	15483	0.2070004784	33
1465	15483	0.2070004784	32
1465	15483	0.2070004784	31
1465	15483	0.2070004784	30
1465	15483	0.2070004784	29
1465	15483	0.2070004784	28
1465	15483	0.2070004784	27
1465	15483	0.2070004784	26
1465	15483	0.2070004784	25
1465	15483	0.2070004784	24
1465	15483	0.2070004784	23
1465	15483	0.2070004784	22
1465	15483	0.2070004784	21
1465	15483	0.2070004784	20
1465	15483	0.2070004784	19
1465	15483	0.2070004784	18
1465	15483	0.2070004784	17
1465	15483	0.2070004784	16
1465	15483	0.2070004784	15
1465	15483	0.2070004784	14
1465	15483	0.2070004784	13
1465	15483	0.2070004784	12
1465	15483	0.2070004784	11
1465	15483	0.2070004784	10
1465	15483	0.2070004784	9
1465	15483	0.2070004784	8
1465	15483	0.2070004784	7
1465	15483	0.2070004784	6
1465	15483	0.2070004784	5
1465	15483	0.2070004784	4
1465	15483	0.2070004784	3
1465	15483	0.2070004784	2
1465	15483	0.2070004784	1
1465	15483	0.2070004784	0
1008	674	0.007	2
[...]
948	59683	0.827	0
948	59844	0.829	0
948	60053	0.832	0
948	60189	0.834	0
948	60423	0.837	0
948	60534	0.839	0
948	60793	0.842	0
948	60904	0.844	0
948	61096	0.847	0
948	61274	0.849	0
948	61441	0.852	0
948	61644	0.854	0
948	61786	0.857	0
948	61947	0.859	0
948	62156	0.862	0
948	62292	0.864	0
948	62526	0.867	0
948	62637	0.869	0
948	62896	0.872	0
948	63007	0.874	0
948	63199	0.877	0
948	63377	0.879	0
948	63544	0.882	0
948	63747	0.884	0
948	63889	0.887	0
948	64050	0.889	0
948	64259	0.892	0
948	64395	0.894	0
948	64629	0.897	0
948	64740	0.899	0
948	65019	0.902	0
948	65130	0.904	0
948	65322	0.907	0
948	65500	0.909	0
948	65667	0.912	0
948	65870	0.914	0
948	66012	0.917	0
948	66173	0.919	0
948	66382	0.922	0
948	66518	0.924	0
948	66752	0.927	0
948	66863	0.929	0
948	67122	0.932	0
948	67233	0.934	0
948	67425	0.937	0
948	67603	0.939	0
948	67770	0.942	0
948	67973	0.944	0
948	68115	0.947	0
948	68276	0.949	0
948	68485	0.952	0
948	68621	0.954	0
948	68855	0.957	0
948	68966	0.959	0
948	69225	0.962	0
948	69336	0.964	0
948	69528	0.967	0
948	69706	0.969	0
948	69873	0.972	0
948	70076	0.974	0
948	70218	0.977	0
948	70379	0.979	0
948	70588	0.982	0
948	70724	0.984	0
948	70958	0.987	0
948	71069	0.989	0
948	71328	0.992	0
948	71439	0.994	0
948	71632	0.997	0
948	71810	0.999	0
948	71996	1.002	0
948	72199	1.004	0
948	72341	1.007	0
948	72502	1.009	0
948	72711	1.012	0
948	72847	1.014	0
948	73081	1.017	0
948	73192	1.019	0
948	73451	1.022	0
948	73562	1.024	0
948	73754	1.027	0
948	73932	1.029	0
948	74099	1.032	0
948	74302	1.034	0
948	74444	1.037	0
948	74605	1.039	0
948	74814	1.042	0
948	74950	1.044	0
948	75184	1.047	0
948	75295	1.049	0
948	75554	1.052	0
948	75665	1.054	0
948	75857	1.057	0
948	76035	1.059	0
948	76202	1.062	0
948	76405	1.064	0
948	76547	1.067	0
948	76708	1.069	0
948	76917	1.072	0
948	77053	1.074	0
948	77287	1.077	0
948	77398	1.079	0
948	77657	1.082	0
948	77768	1.084	0
948	77960	1.087	0
948	78138	1.089	0
948	78305	1.092	0
948	78508	1.094	0
948	78651	1.097	0
948	78812	1.099	0
948	79040	1.102	0
948	79176	1.104	0
948	79410	1.107	0
948	79521	1.109	0
948	79780	1.112	0
948	79891	1.114	0
948	80083	1.117	0
948	80261	1.119	0
948	80428	1.122	0
948	80631	1.124	0
948	80773	1.127	0
948	80934	1.129	0
948	81143	1.132	0
948	81279	1.134	0
948	81513	1.137	0
948	81624	1.139	0
948	81883	1.142	0
948	81994	1.144	0
948	82186	1.147	0
948	82364	1.149	0
948	82531	1.152	0
948	82734	1.154	0
948	82876	1.157	0
948	83037	1.159	0
948	83246	1.162	0
948	83382	1.164	0
948	83616	1.167	0
948	83727	1.169	0
948	83986	1.172	0
948	84097	1.174	0
948	84289	1.177	0
948	84467	1.179	0
948	84634	1.182	0
948	84837	1.184	0
948	84979	1.187	0
948	85140	1.189	0
948	85349	1.192	0
948	85485	1.194	0
948	85720	1.197	0
948	85831	1.199	0
948	86109	1.202	0
948	86220	1.204	0
948	86412	1.207	0
948	86591	1.209	0
948	86758	1.212	0
948	86961	1.214	0
948	87103	1.217	0
948	87264	1.219	0
948	87473	1.222	0
948	87609	1.224	0
948	87843	1.227	0
948	87954	1.229	0
948	88213	1.232	0
948	88324	1.234	0
948	88516	1.237	0
948	88694	1.239	0
948	88861	1.242	0
948	89064	1.244	0
948	89206	1.247	0
948	89367	1.249	0
948	89576	1.252	0
948	89712	1.254	0
948	89946	1.257	0
948	90058	1.259	0
948	90317	1.262	0
948	90428	1.264	0
948	90620	1.267	0
948	90798	1.269	0
948	90965	1.272	0
948	91168	1.274	0
948	91310	1.277	0
948	91471	1.279	0
948	91680	1.282	0
948	91816	1.284	0
948	92050	1.287	0
948	92161	1.289	0
948	92420	1.292	0
948	92531	1.294	0
948	92724	1.297	0
948	92902	1.299	0
948	93088	1.302	0
948	93291	1.304	0
948	93433	1.307	0
948	93594	1.309	0
948	93803	1.312	0
948	93939	1.314	0
948	94173	1.317	0
948	94284	1.319	0
948	94543	1.322	0
948	94654	1.324	0
948	94846	1.327	0
948	95024	1.329	0
948	95191	1.332	0
948	95394	1.334	0
948	95536	1.337	0
948	95697	1.339	0
948	95906	1.342	0
948	96042	1.344	0
948	96276	1.347	0
948	96387	1.349	0
948	96646	1.352	0
948	96757	1.354	0
948	96949	1.357	0
948	97127	1.359	0
948	97294	1.362	0
948	97497	1.364	0
948	97639	1.367	0
948	97800	1.369	0
948	98009	1.372	0
948	98145	1.374	0
948	98379	1.377	0
948	98490	1.379	0
948	98749	1.382	0
948	98860	1.384	0
948	99052	1.387	0
948	99230	1.389	0
948	99397	1.392	0
948	99600	1.394	0
948	99743	1.397	0
948	99904	1.399	0
948	100132	1.402	0
948	100268	1.404	0
948	100502	1.407	0
948	100613	1.409	0
948	100872	1.412	0
948	100983	1.414	0
948	101175	1.417	0
948	101353	1.419	0
948	101520	1.422	0
948	101723	1.424	0
948	101865	1.427	0
948	102026	1.429	0
948	102235	1.432	0
948	102371	1.434	0
948	102605	1.437	0
948	102716	1.439	0
948	102975	1.442	0
948	103086	1.444	0
948	103278	1.447	0
948	103456	1.449	0
948	103623	1.452	0
948	103826	1.454	0
948	103968	1.457	0
948	104129	1.459	0
948	104338	1.462	0
948	104474	1.464	0
948	104708	1.467	0
948	104819	1.469	0
948	105078	1.472	0
948	105189	1.474	0
948	105381	1.477	0
948	105559	1.479	0
948	105726	1.482	0
948	105929	1.484	0
948	106071	1.487	0
948	106232	1.489	0
948	106441	1.492	0
948	106577	1.494	0
948	106812	1.497	0
948	106923	1.499	0
948	107201	1.502	0
948	107312	1.504	0
948	107504	1.507	0
948	107682	1.509	0
948	107849	1.512	0
948	108052	1.514	0
948	108194	1.517	0
948	108355	1.519	0
948	108564	1.522	0
948	108700	1.524	0
948	108934	1.527	0
948	109045	1.529	0
948	109304	1.532	0
948	109415	1.534	0
948	109607	1.537	0
948	109785	1.539	0
948	109952	1.542	0
948	110155	1.544	0
948	110297	1.547	0
948	110458	1.549	0
948	110667	1.552	0
948	110803	1.554	0
948	111037	1.557	0
948	111148	1.559	0
948	111407	1.562	0
948	111518	1.564	0
948	111710	1.567	0
948	111888	1.569	0
948	112055	1.572	0
948	112258	1.574	0
948	112400	1.577	0
948	112561	1.579	0
948	112770	1.582	0
948	112906	1.584	0
948	113140	1.587	0
948	113251	1.589	0
948	113510	1.592	0
948	113621	1.594	0
948	113814	1.597	0
948	113992	1.599	0
948	114178	1.602	0
948	114381	1.604	0
948	114523	1.607	0
948	114684	1.609	0
948	114893	1.612	0
948	115029	1.614	0
948	115263	1.617	0
948	115374	1.619	0
948	115633	1.622	0
948	115744	1.624	0
948	115936	1.627	0
948	116114	1.629	0
948	116281	1.632	0
948	116484	1.634	0
948	116626	1.637	0
948	116787	1.639	0
948	116996	1.642	0
948	117132	1.644	0
948	117366	1.647	0
948	117477	1.649	0
948	117736	1.652	0
948	117847	1.654	0
948	118039	1.657	0
948	118217	1.659	0
948	118384	1.662	0
948	118587	1.664	0
948	118729	1.667	0
948	118890	1.669	0
948	119099	1.672	0
948	119235	1.674	0
948	119469	1.677	0
948	119580	1.679	0
948	119839	1.682	0
948	119950	1.684	0
948	120142	1.687	0
948	120320	1.689	0
948	120487	1.692	0
948	120690	1.694	0
948	120833	1.697	0
948	120994	1.699	0
948	121222	1.702	0
948	121358	1.704	0
948	121592	1.707	0
948	121703	1.709	0
948	121962	1.712	0
948	122073	1.714	0
948	122265	1.717	0
948	122443	1.719	0
948	122610	1.722	0
948	122813	1.724	0
948	122955	1.727	0
948	123116	1.729	0
948	123325	1.732	0
948	123461	1.734	0
948	123695	1.737	0
948	123806	1.739	0
948	124065	1.742	0
948	124176	1.744	0
948	124368	1.747	0
948	124546	1.749	0
948	124713	1.752	0
948	124916	1.754	0
948	125058	1.757	0
948	125219	1.759	0
948	125428	1.762	0
948	125564	1.764	0
948	125798	1.767	0
948	125909	1.769	0
948	126168	1.772	0
948	126279	1.774	0
948	126471	1.777	0
948	126649	1.779	0
948	126816	1.782	0
948	127019	1.784	0
948	127161	1.787	0
948	127322	1.789	0
948	127531	1.792	0
948	127667	1.794	0
948	127902	1.797	0
948	128013	1.799	0
948	128291	1.802	0
948	128402	1.804	0
948	128594	1.807	0
948	128772	1.809	0
948	128939	1.812	0
948	129142	1.814	0
948	129284	1.817	0
948	129445	1.819	0
948	129654	1.822	0
948	129790	1.824	0
948	130024	1.827	0
948	130135	1.829	0
948	130394	1.832	0
948	130505	1.834	0
948	130697	1.837	0
948	130875	1.839	0
948	131042	1.842	0
948	131245	1.844	0
948	131387	1.847	0
948	131548	1.849	0
948	131757	1.852	0
948	131893	1.854	0
948	132127	1.857	0
948	132238	1.859	0
948	132497	1.862	0
948	132608	1.864	0
948	132800	1.867	0
948	132978	1.869	0
948	133145	1.872	0
948	133348	1.874	0
948	133490	1.877	0
948	133651	1.879	0
948	133860	1.882	0
948	133996	1.884	0
948	134230	1.887	0
948	134341	1.889	0
948	134600	1.892	0
948	134711	1.894	0
948	134904	1.897	0
948	135082	1.899	0
948	135268	1.902	0
948	135471	1.904	0
948	135613	1.907	0
948	135774	1.909	0
948	135983	1.912	0
948	136119	1.914	0
948	136353	1.917	0
948	136464	1.919	0
948	136723	1.922	0
948	136834	1.924	0
948	137026	1.927	0
948	137204	1.929	0
948	137371	1.932	0
948	137574	1.934	0
948	137716	1.937	0
948	137877	1.939	0
948	138086	1.942	0
948	138222	1.944	0
948	138456	1.947	0
948	138567	1.949	0
948	138826	1.952	0
948	138937	1.954	0
948	139129	1.957	0
948	139307	1.959	0
948	139474	1.962	0
948	139677	1.964	0
948	139819	1.967	0
948	139980	1.969	0
948	140189	1.972	0
948	140325	1.974	0
948	140559	1.977	0
948	140670	1.979	0
948	140929	1.982	0
948	141040	1.984	0
948	141232	1.987	0
948	141410	1.989	0
948	141577	1.992	0
948	141780	1.994	0
948	141923	1.997	0
948	142084	1.999	0
948	142312	2.002	0
948	142448	2.004	0
948	142682	2.007	0
948	142793	2.009	0
948	143052	2.012	0
948	143163	2.014	0
948	143355	2.017	0
948	143533	2.019	0
948	143700	2.022	0
948	143903	2.024	0
948	144045	2.027	0
948	144206	2.029	0
948	144415	2.032	0
948	144551	2.034	0
948	144785	2.037	0
948	144896	2.039	0
948	145155	2.042	0
948	145266	2.044	0
948	145458	2.047	0
948	145636	2.049	0
948	145803	2.052	0
948	146006	2.054	0
948	146148	2.057	0
948	146309	2.059	0
948	146518	2.062	0
948	146654	2.064	0
948	146888	2.067	0
948	146999	2.069	0
948	147258	2.072	0
948	147369	2.074	0
948	147561	2.077	0
948	147739	2.079	0
948	147906	2.082	0
948	148109	2.084	0
948	148251	2.087	0
948	148412	2.089	0
948	148621	2.092	0
948	148757	2.094	0
948	148992	2.097	0
948	149103	2.099	0
948	149381	2.102	0
948	149492	2.104	0
948	149684	2.107	0
948	149862	2.109	0
948	150029	2.112	0
948	150232	2.114	0
948	150374	2.117	0
948	150535	2.119	0
948	150744	2.122	0
948	150880	2.124	0
948	151114	2.127	0
948	151225	2.129	0
948	151484	2.132	0
948	151595	2.134	0
948	151787	2.137	0
948	151965	2.139	0
948	152132	2.142	0
948	152335	2.144	0
948	152477	2.147	0
948	152638	2.149	0
948	152847	2.152	0
948	152983	2.154	0
948	153217	2.157	0
948	153328	2.159	0
948	153587	2.162	0
948	153698	2.164	0
948	153890	2.167	0
948	154068	2.169	0
948	154235	2.172	0
948	154438	2.174	0
948	154580	2.177	0
948	154741	2.179	0
948	154950	2.182	0
948	155086	2.184	0
948	155320	2.187	0
948	155431	2.189	0
948	155690	2.192	0
948	155801	2.194	0
948	155994	2.197	0
948	156172	2.199	0
948	156358	2.202	0
948	156561	2.204	0
948	156703	2.207	0
948	156864	2.209	0
948	157073	2.212	0
948	157209	2.214	0
948	157443	2.217	0
948	157554	2.219	0
948	157813	2.222	0
948	157924	2.224	0
948	158116	2.227	0
948	158294	2.229	0
948	158461	2.232	0
948	158664	2.234	0
948	158806	2.237	0
948	158967	2.239	0
948	159176	2.242	0
948	159312	2.244	0
948	159546	2.247	0
948	159657	2.249	0
948	159916	2.252	0
948	160027	2.254	0
948	160219	2.257	0
948	160397	2.259	0
948	160564	2.262	0
948	160767	2.264	0
948	160909	2.267	0
948	161070	2.269	0
948	161279	2.272	0
948	161415	2.274	0
948	161649	2.277	0
948	161760	2.279	0
948	162019	2.282	0
948	162130	2.284	0
948	162322	2.287	0
948	162500	2.289	0
948	162667	2.292	0
948	162870	2.294	0
948	163013	2.297	0
948	163174	2.299	0
948	163402	2.302	0
948	163538	2.304	0
948	163772	2.307	0
948	163883	2.309	0
948	164142	2.312	0
948	164253	2.314	0
948	164445	2.317	0
948	164623	2.319	0
948	164790	2.322	0
948	164993	2.324	0
948	165135	2.327	0
948	165296	2.329	0
948	165505	2.332	0
948	165641	2.334	0
948	165875	2.337	0
948	165986	2.339	0
948	166245	2.342	0
948	166356	2.344	0
948	166548	2.347	0
948	166726	2.349	0
948	166893	2.352	0
948	167096	2.354	0
948	167238	2.357	0
948	167399	2.359	0
948	167608	2.362	0
948	167744	2.364	0
948	167978	2.367	0
948	168089	2.369	0
948	168348	2.372	0
948	168459	2.374	0
948	168651	2.377	0
948	168829	2.379	0
948	168996	2.382	0
948	169199	2.384	0
948	169341	2.387	0
948	169502	2.389	0
948	169711	2.392	0
948	169847	2.394	0
948	170082	2.397	0
948	170193	2.399	0
948	170471	2.402	0
948	170582	2.404	0
948	170774	2.407	0
948	170952	2.409	0
948	171119	2.412	0
948	171322	2.414	0
948	171464	2.417	0
948	171625	2.419	0
948	171834	2.422	0
948	171970	2.424	0
948	172204	2.427	0
948	172315	2.429	0
948	172574	2.432	0
948	172685	2.434	0
948	172877	2.437	0
948	173055	2.439	0
948	173222	2.442	0
948	173425	2.444	0
948	173567	2.447	0
948	173728	2.449	0
948	173937	2.452	0
948	174073	2.454	0
948	174307	2.457	0
948	174418	2.459	0
948	174677	2.462	0
948	174788	2.464	0
948	174980	2.467	0
948	175158	2.469	0
948	175325	2.472	0
948	175528	2.474	0
948	175670	2.477	0
948	175831	2.479	0
948	176040	2.482	0
948	176176	2.484	0
948	176410	2.487	0
948	176521	2.489	0
948	176780	2.492	0
948	176891	2.494	0
948	177084	2.497	0
948	177262	2.499	0
948	177448	2.502	0
948	177651	2.504	0
948	177793	2.507	0
948	177954	2.509	0
948	178163	2.512	0
948	178299	2.514	0
948	178533	2.517	0
948	178644	2.519	0
948	178903	2.522	0
948	179014	2.524	0
948	179206	2.527	0
948	179384	2.529	0
948	179551	2.532	0
948	179754	2.534	0
948	179896	2.537	0
948	180057	2.539	0
948	180266	2.542	0
948	180402	2.544	0
948	180636	2.547	0
948	180747	2.549	0
948	181006	2.552	0
948	181117	2.554	0
948	181309	2.557	0
948	181487	2.559	0
948	181654	2.562	0
948	181857	2.564	0
948	181999	2.567	0
948	182160	2.569	0
948	182369	2.572	0
948	182505	2.574	0
948	182739	2.577	0
948	182850	2.579	0
948	183109	2.582	0
948	183220	2.584	0
948	183412	2.587	0
948	183590	2.589	0
948	183757	2.592	0
948	183960	2.594	0
948	184103	2.597	0
948	184264	2.599	0
948	184492	2.602	0
948	184628	2.604	0
948	184862	2.607	0
948	184973	2.609	0
948	185232	2.612	0
948	185343	2.614	0
948	185535	2.617	0
948	185713	2.619	0
948	185880	2.622	0
948	186083	2.624	0
948	186225	2.627	0
948	186386	2.629	0
948	186595	2.632	0
948	186731	2.634	0
948	186965	2.637	0
948	187076	2.639	0
948	187335	2.642	0
948	187446	2.644	0
948	187638	2.647	0
948	187816	2.649	0
948	187983	2.652	0
948	188186	2.654	0
948	188328	2.657	0
948	188489	2.659	0
948	188698	2.662	0
948	188834	2.664	0
948	189068	2.667	0
948	189179	2.669	0
948	189438	2.672	0
948	189549	2.674	0
948	189741	2.677	0
948	189919	2.679	0
948	190086	2.682	0
948	190289	2.684	0
948	190431	2.687	0
948	190592	2.689	0
948	190801	2.692	0
948	190937	2.694	0
948	191172	2.697	0
948	191283	2.699	0
948	191561	2.702	0
948	191672	2.704	0
948	191864	2.707	0
948	192042	2.709	0
948	192209	2.712	0
948	192412	2.714	0
948	192554	2.717	0
948	192715	2.719	0
948	192924	2.722	0
948	193060	2.724	0
948	193294	2.727	0
948	193405	2.729	0
948	193664	2.732	0
948	193775	2.734	0
948	193967	2.737	0
948	194145	2.739	0
948	194312	2.742	0
948	194515	2.744	0
948	194657	2.747	0
948	194818	2.749	0
948	195027	2.752	0
948	195163	2.754	0
948	195397	2.757	0
948	195508	2.759	0
948	195767	2.762	0
948	195878	2.764	0
948	196070	2.767	0
948	196248	2.769	0
948	196415	2.772	0
948	196618	2.774	0
948	196760	2.777	0
948	196921	2.779	0
948	197130	2.782	0
948	197266	2.784	0
948	197500	2.787	0
948	197611	2.789	0
948	197870	2.792	0
948	197981	2.794	0
948	198174	2.797	0
948	198352	2.799	0
948	198538	2.802	0
948	198741	2.804	0
948	198883	2.807	0
948	199044	2.809	0
948	199253	2.812	0
948	199389	2.814	0
948	199623	2.817	0
948	199734	2.819	0
948	199993	2.822	0
948	200104	2.824	0
948	200296	2.827	0
948	200474	2.829	0
948	200641	2.832	0
948	200844	2.834	0
948	200986	2.837	0
948	201147	2.839	0
948	201356	2.842	0
948	201492	2.844	0
948	201726	2.847	0
948	201837	2.849	0
948	202096	2.852	0
948	202207	2.854	0
948	202399	2.857	0
948	202577	2.859	0
948	202744	2.862	0
948	202947	2.864	0
948	203089	2.867	0
948	203250	2.869	0
948	203459	2.872	0
948	203595	2.874	0
948	203829	2.877	0
948	203940	2.879	0
948	204199	2.882	0
948	204310	2.884	0
948	204502	2.887	0
948	204680	2.889	0
948	204847	2.892	0
948	205050	2.894	0
948	205193	2.897	0
948	205354	2.899	0
948	205582	2.902	0
948	205718	2.904	0
948	205952	2.907	0
948	206063	2.909	0
948	206322	2.912	0
948	206433	2.914	0
948	206625	2.917	0
948	206803	2.919	0
948	206970	2.922	0
948	207173	2.924	0
948	207315	2.927	0
948	207476	2.929	0
948	207685	2.932	0
948	207821	2.934	0
948	208055	2.937	0
948	208166	2.939	0
948	208425	2.942	0
948	208536	2.944	0
948	208728	2.947	0
948	208906	2.949	0
948	209073	2.952	0
948	209276	2.954	0
948	209418	2.957	0
948	209579	2.959	0
948	209788	2.962	0
948	209924	2.964	0
952	1691	0.024	1
952	1994	0.029	2
952	2371	0.034	3
952	2737	0.039	4
952	3131	0.044	5
952	3485	0.049	6
952	3841	0.054	7
952	4300	0.059	8
952	4728	0.064	9
967	0	0	1
973	1259	0.017291934837	44
976	1259	0.017291934837	45
977	1262	0.017291934837	45
978	2307	0.033	0
978	2678	0.038	0
978	3017	0.043	0
978	3020	0.043	0
978	3117	0.044	0
978	3369	0.048	0
978	3372	0.048	0
978	3375	0.048	0
978	3468	0.049	0
978	3736	0.053	0
978	3742	0.053	0
978	3745	0.053	0
978	4572	0.062	0
980	1318	0.018	0
980	1603	0.023	0
980	1939	0.028	0
980	2302	0.033	0
980	2307	0.033	0
980	2622	0.038	0
980	2678	0.038	0
980	3010	0.043	0
980	3017	0.043	0
980	3020	0.043	0
980	3117	0.044	0
980	3360	0.048	0
980	3369	0.048	0
980	3372	0.048	0
980	3375	0.048	0
980	3468	0.049	0
980	3729	0.053	0
980	3736	0.053	0
980	3742	0.053	0
980	3745	0.053	0
980	4572	0.062	0
986	1318	0.018	1
986	1603	0.023	2
986	1939	0.028	3
986	2302	0.033	4
986	2622	0.038	5
986	3010	0.043	6
986	3360	0.048	7
986	3729	0.053	8
999	0	0	1
999	4070	0.057	2
999	4603	0.063	2
999	5066	0.069	2
999	5524	0.075	2
999	5976	0.081	2
999	6458	0.087	2
999	6973	0.093	2
999	7540	0.099	2
999	8117	0.105	2
1479	1072	0.013945144669	7504
1480	1072	0.013945144669	7504
1482	1072	0.013945144669	0
1493	1072	0.013945144669	0
1503	1256	0.017291934837	7504
1504	1256	0.017291934837	7504
1506	1256	0.017291934837	0
1517	1256	0.017291934837	0
1527	1495	0.020429364846	7504
1528	1495	0.020429364846	7504
1530	1495	0.020429364846	0
1541	1495	0.020429364846	0
1551	1617	0.023409340573	7504
1552	1617	0.023409340573	7504
1554	1617	0.023409340573	0
1565	1617	0.023409340573	0
1575	1996	0.029577355213	7504
1576	1996	0.029577355213	7504
1578	1996	0.029577355213	0
1589	1996	0.029577355213	0
1599	2154	0.031389955268	7504
1600	2154	0.031389955268	7504
1602	2154	0.031389955268	0
1613	2154	0.031389955268	0
1623	2252	0.032763117831	7504
1624	2252	0.032763117831	7504
1626	2252	0.032763117831	0
1637	2252	0.032763117831	0
1647	2260	0.03277608233	7504
1648	2260	0.03277608233	7504
1650	2260	0.03277608233	0
1661	2260	0.03277608233	0
1671	2318	0.033984720812	7504
1672	2318	0.033984720812	7504
1674	2318	0.033984720812	0
1685	2318	0.033984720812	0
1695	2843	0.041401293019	7504
1696	2843	0.041401293019	7504
1698	2843	0.041401293019	0
1709	2843	0.041401293019	0
1719	3235	0.0465854099	7504
1720	3235	0.0465854099	7504
1722	3235	0.0465854099	0
1733	3235	0.0465854099	0
1743	3641	0.051714848483	7504
1744	3641	0.051714848483	7504
1746	3641	0.051714848483	0
1757	3641	0.051714848483	0
1767	3758	0.053527664666	7504
1768	3758	0.053527664666	7504
1770	3758	0.053527664666	0
1781	3758	0.053527664666	0
1791	4254	0.058625387866	7504
1792	4254	0.058625387866	7504
1794	4254	0.058625387866	0
1805	4254	0.058625387866	0
1815	4306	0.059049774688	7504
1816	4306	0.059049774688	7504
1818	4306	0.059049774688	0
1829	4306	0.059049774688	0
1839	4385	0.060278170027	7504
1840	4385	0.060278170027	7504
1842	4385	0.060278170027	0
1853	4385	0.060278170027	0
1863	4589	0.062601716756	7504
1864	4589	0.062601716756	7504
1866	4589	0.062601716756	0
1877	4589	0.062601716756	0
1887	5637	0.076266208328	7504
1888	5637	0.076266208328	7504
1890	5637	0.076266208328	0
1901	5637	0.076266208328	0
1911	6102	0.082919128996	7504
1912	6102	0.082919128996	7504
1914	6102	0.082919128996	0
1925	6102	0.082919128996	0
1935	6164	0.083256449993	7504
1936	6164	0.083256449993	7504
1938	6164	0.083256449993	0
1949	6164	0.083256449993	0
1959	6543	0.087465974346	7504
1960	6543	0.087465974346	7504
1962	6543	0.087465974346	0
1973	6543	0.087465974346	0
1983	6648	0.089455451544	7504
1984	6648	0.089455451544	7504
1986	6648	0.089455451544	0
1997	6648	0.089455451544	0
2007	7054	0.093058322349	7504
2008	7054	0.093058322349	7504
2010	7054	0.093058322349	0
2021	7054	0.093058322349	0
2031	7062	0.093147725489	7504
2032	7062	0.093147725489	7504
2034	7062	0.093147725489	0
2045	7062	0.093147725489	0
2055	7526	0.098821217397	7504
2056	7526	0.098821217397	7504
2058	7526	0.098821217397	0
2069	7526	0.098821217397	0
