file 4942889 1588964244                                         
version 2
run CAIN-38-20200508-15:48:33-11269
attr configname CAIN
attr datetime 20200508-15:48:33
attr dist 200
attr experiment CAIN
attr extAllocType "\"RANDOM_ALLOC\""
attr inifile omnetpp.ini
attr iterationvars "$numUe=20, $pwr=-50, $dist=200, $mob=\"./movements/RPGM-0.0.movements\", $extAllocType=\"RANDOM_ALLOC\""
attr iterationvars2 "$numUe=20, $pwr=-50, $dist=200, $mob=\"./movements/RPGM-0.0.movements\", $extAllocType=\"RANDOM_ALLOC\", $repetition=3"
attr measurement "$numUe=20, $pwr=-50, $dist=200, $mob=\"./movements/RPGM-0.0.movements\", $extAllocType=\"RANDOM_ALLOC\""
attr mob "\"./movements/RPGM-0.0.movements\""
attr network lte.simulations.networks.CAIN
attr numUe 20
attr processid 11269
attr pwr -50
attr repetition 3
attr replication #3
attr resultdir results
attr runnumber 38
attr seedset 3
param **.**.amcMode "\"AUTO\""
param **.amcMode "\"D2D\""
param **.cainNetwork true
param **.channelControl.alpha 1.0
param **.channelControl.carrierFrequency 2100e+6Hz
param **.channelControl.pMax 10W
param **.d2dCqi 7
param **.deployer.numRbDl 50
param **.deployer.numRbUl 50
param **.distThresh ${dist=200}
param **.fbDelay 1
param **.feedbackComputation "xmldoc(\"config_channel.xml\")"
param **.mobility.constraintAreaMaxX 1000m
param **.mobility.constraintAreaMaxY 1000m
param **.mobility.constraintAreaMaxZ 0m
param **.mobility.constraintAreaMinX 0m
param **.mobility.constraintAreaMinY 0m
param **.mobility.constraintAreaMinZ 0m
param **.nic.phy.channelModel "xmldoc(\"config_channel.xml\")"
param **.numBands 50
param **.pwrThresh "${pwr= -50}"
param **.qtdThresh 3
param **.rbAllocationType "\"localized\""
param **.routingRecorder.enabled false
param **.tcpApp[*].tClose -1s
param **.ueD2DTx[*].mobility.changeAngleBy "normal(0deg, 30deg)"
param **.ueD2DTx[*].mobility.changeInterval "normal(5s, 0.1s)"
param **.ueD2DTx[*].mobility.nodeId -1
param **.ueD2DTx[*].mobility.speed "normal(2mps, 0.01mps)"
param **.ueD2DTx[*].mobility.traceFile "${mob=\"./movements/RWP-0.0.movements\",\"./movements/RWP-0.5.movements\",\"./movements/RPGM-0.0.movements\",\"./movements/RPGM-0.5.movements\",\"./movements/RWPRPGM-0.0.movements\",\"./movements/RWPRPGM-0.5.movements\"}"
param **.ueD2DTx[*].mobilityType "\"BonnMotionMobility\""
param **.usePreconfiguredTxParams false
param *.eNodeB*.numX2Apps 1
param *.eNodeB*.x2App[*].server.localPort "5000 + ancestorIndex(1)"
param *.eNodeB.d2dCapable false
param *.eNodeB.mobility.initFromDisplayString false
param *.eNodeB.mobility.initialX 300m
param *.eNodeB.mobility.initialY 300m
param *.eNodeB.nic.phy.enableD2DCqiReporting true
param *.eNodeB.txPower 19952.62315mw
param *.eNodeB.x2App[0].client.connectAddress "\"eNodeB1%x2ppp0\""
param *.eNodeB1.d2dCapable true
param *.eNodeB1.mobility.initFromDisplayString false
param *.eNodeB1.mobility.initialX 700m
param *.eNodeB1.mobility.initialY 300m
param *.eNodeB1.nic.phy.enableD2DCqiReporting true
param *.eNodeB1.txPower 19952.62315mw
param *.eNodeB1.x2App[0].client.connectAddress "\"eNodeB%x2ppp0\""
param *.extCell[*].bandAllocationType "${extAllocType=\"FULL_ALLOC\",\"RANDOM_ALLOC\",\"CONTIGUOUS_ALLOC\"}"
param *.extCell[*].bandUtilization 0.5
param *.extCell[*].txDirection "\"ANISOTROPIC\""
param *.extCell[*].txPower 20
param *.extCell[0].position_x 100m
param *.extCell[0].position_y 600m
param *.extCell[0].txAngle 315
param *.extCell[1].position_x 600m
param *.extCell[1].position_y 600m
param *.extCell[1].txAngle 225
param *.numExtCells 2
param *.numUeCell 0
param *.numUeD2DRx 1
param *.numUeD2DTx 1
param *.ue*.macCellId 1
param *.ue*.masterId 1
param *.ue*.mobility.initFromDisplayString false
param *.ue*[0].macCellId 1
param *.ue*[0].masterId 1
param *.ue*[0].mobility.initFromDisplayString false
param *.ueD2D*.numTcpApps 1
param *.ueD2D*[*].d2dCapable true
param *.ueD2D*[0].d2dCapable false
param *.ueD2D*[0].numTcpApps 1
param *.ueD2DRx[0].mobility.initialX 310m
param *.ueD2DRx[0].mobility.initialY 350m
param *.ueD2DRx[0].tcpApp[*].localPort 1000
param *.ueD2DRx[0].tcpApp[*].typename "\"TCPSinkApp\""
param *.ueD2DTx*.nic.d2dPeerAddresses "\"ueD2DTx[1]\""
param *.ueD2DTx*.tcpApp[*].connectAddress "\"ueD2DTx[0]\""
param *.ueD2DTx*.tcpApp[*].localAddress "\"ueD2DTx\""
param *.ueD2DTx*.tcpApp[*].localPort 1000
param *.ueD2DTx*.tcpApp[*].sendBytes 1GiB
param *.ueD2DTx*.tcpApp[*].typename "\"TCPSessionApp\""
param *.ueD2DTx*.tcpApp[0].active true
param *.ueD2DTx*.tcpApp[0].connectPort 1000
param *.ueD2DTx*.tcpApp[0].tOpen uniform(0.010s,0.1s)
param *.ueD2DTx*.tcpApp[0].tSend uniform(0.15s,0.5s)
param *.ueD2DTx[0].mobility.initialX 290m
param *.ueD2DTx[0].mobility.initialY 350m
param *.ueD2DTx[0].tcpApp[*].localPort 1000
param *.ueD2DTx[0].tcpApp[*].sendBytes 1GiB
param *.ueD2DTx[0].tcpApp[*].typename "\"TCPSessionApp\""
param *.ueD2DTx[0].tcpApp[0].active true
param *.ueD2DTx[0].tcpApp[0].connectAddress "\"ueD2DRx[0]\""
param *.ueD2DTx[0].tcpApp[0].connectPort 1000
param *.ueD2DTx[0].tcpApp[0].localAddress "\"ueD2DTx[0]\""
param *.ueD2DTx[0].tcpApp[0].tOpen uniform(0.010s,0.1s)
param *.ueD2DTx[0].tcpApp[0].tSend uniform(0.15s,0.5s)
param *.ueD2DTx[1].mobility.initialX 690m
param *.ueD2DTx[1].mobility.initialY 250m

vector 8  CAIN.server.ppp[0].queue  queueLength:vector  ETV
attr interpolationmode  sample-hold
attr title  "queue length, vector"
vector 9  CAIN.server.ppp[0].ppp  txState:vector  ETV
attr interpolationmode  sample-hold
attr title  "tx state, vector"
vector 24  CAIN.router.ppp[0].queue  queueLength:vector  ETV
attr interpolationmode  sample-hold
attr title  "queue length, vector"
vector 25  CAIN.router.ppp[0].ppp  txState:vector  ETV
attr interpolationmode  sample-hold
attr title  "tx state, vector"
vector 35  CAIN.router.ppp[1].queue  queueLength:vector  ETV
attr interpolationmode  sample-hold
attr title  "queue length, vector"
vector 36  CAIN.router.ppp[1].ppp  txState:vector  ETV
attr interpolationmode  sample-hold
attr title  "tx state, vector"
vector 56  CAIN.pgw.ppp[0].queue  queueLength:vector  ETV
attr interpolationmode  sample-hold
attr title  "queue length, vector"
vector 57  CAIN.pgw.ppp[0].ppp  txState:vector  ETV
attr interpolationmode  sample-hold
attr title  "tx state, vector"
vector 67  CAIN.pgw.ppp[1].queue  queueLength:vector  ETV
attr interpolationmode  sample-hold
attr title  "queue length, vector"
vector 68  CAIN.pgw.ppp[1].ppp  txState:vector  ETV
attr interpolationmode  sample-hold
attr title  "tx state, vector"
vector 78  CAIN.pgw.pppInterface.queue  queueLength:vector  ETV
attr interpolationmode  sample-hold
attr title  "queue length, vector"
vector 79  CAIN.pgw.pppInterface.ppp  txState:vector  ETV
attr interpolationmode  sample-hold
attr title  "tx state, vector"
vector 120  CAIN.eNodeB.pppIf.queue  queueLength:vector  ETV
attr interpolationmode  sample-hold
attr title  "queue length, vector"
vector 121  CAIN.eNodeB.pppIf.ppp  txState:vector  ETV
attr interpolationmode  sample-hold
attr title  "tx state, vector"
vector 131  CAIN.eNodeB.x2ppp[0].queue  queueLength:vector  ETV
attr interpolationmode  sample-hold
attr title  "queue length, vector"
vector 132  CAIN.eNodeB.x2ppp[0].ppp  txState:vector  ETV
attr interpolationmode  sample-hold
attr title  "tx state, vector"
vector 178  CAIN.eNodeB1.pppIf.queue  queueLength:vector  ETV
attr interpolationmode  sample-hold
attr title  "queue length, vector"
vector 179  CAIN.eNodeB1.pppIf.ppp  txState:vector  ETV
attr interpolationmode  sample-hold
attr title  "tx state, vector"
vector 189  CAIN.eNodeB1.x2ppp[0].queue  queueLength:vector  ETV
attr interpolationmode  sample-hold
attr title  "queue length, vector"
vector 190  CAIN.eNodeB1.x2ppp[0].ppp  txState:vector  ETV
attr interpolationmode  sample-hold
attr title  "tx state, vector"
vector 231  CAIN.ueD2DTx[0].nic.phy  servingCell:vector  ETV
attr source  servingCell
attr title  "ID of the serving eNodeB for the UE, vector"
attr unit  ""
vector 263  CAIN.ueD2DTx[1].nic.phy  servingCell:vector  ETV
attr source  servingCell
attr title  "ID of the serving eNodeB for the UE, vector"
attr unit  ""
vector 295  CAIN.ueD2DTx[2].nic.phy  servingCell:vector  ETV
attr source  servingCell
attr title  "ID of the serving eNodeB for the UE, vector"
attr unit  ""
vector 327  CAIN.ueD2DTx[3].nic.phy  servingCell:vector  ETV
attr source  servingCell
attr title  "ID of the serving eNodeB for the UE, vector"
attr unit  ""
vector 359  CAIN.ueD2DTx[4].nic.phy  servingCell:vector  ETV
attr source  servingCell
attr title  "ID of the serving eNodeB for the UE, vector"
attr unit  ""
vector 391  CAIN.ueD2DTx[5].nic.phy  servingCell:vector  ETV
attr source  servingCell
attr title  "ID of the serving eNodeB for the UE, vector"
attr unit  ""
vector 423  CAIN.ueD2DTx[6].nic.phy  servingCell:vector  ETV
attr source  servingCell
attr title  "ID of the serving eNodeB for the UE, vector"
attr unit  ""
vector 455  CAIN.ueD2DTx[7].nic.phy  servingCell:vector  ETV
attr source  servingCell
attr title  "ID of the serving eNodeB for the UE, vector"
attr unit  ""
vector 487  CAIN.ueD2DTx[8].nic.phy  servingCell:vector  ETV
attr source  servingCell
attr title  "ID of the serving eNodeB for the UE, vector"
attr unit  ""
vector 519  CAIN.ueD2DTx[9].nic.phy  servingCell:vector  ETV
attr source  servingCell
attr title  "ID of the serving eNodeB for the UE, vector"
attr unit  ""
vector 551  CAIN.ueD2DTx[10].nic.phy  servingCell:vector  ETV
attr source  servingCell
attr title  "ID of the serving eNodeB for the UE, vector"
attr unit  ""
vector 583  CAIN.ueD2DTx[11].nic.phy  servingCell:vector  ETV
attr source  servingCell
attr title  "ID of the serving eNodeB for the UE, vector"
attr unit  ""
vector 615  CAIN.ueD2DTx[12].nic.phy  servingCell:vector  ETV
attr source  servingCell
attr title  "ID of the serving eNodeB for the UE, vector"
attr unit  ""
vector 647  CAIN.ueD2DTx[13].nic.phy  servingCell:vector  ETV
attr source  servingCell
attr title  "ID of the serving eNodeB for the UE, vector"
attr unit  ""
vector 679  CAIN.ueD2DTx[14].nic.phy  servingCell:vector  ETV
attr source  servingCell
attr title  "ID of the serving eNodeB for the UE, vector"
attr unit  ""
vector 711  CAIN.ueD2DTx[15].nic.phy  servingCell:vector  ETV
attr source  servingCell
attr title  "ID of the serving eNodeB for the UE, vector"
attr unit  ""
vector 743  CAIN.ueD2DTx[16].nic.phy  servingCell:vector  ETV
attr source  servingCell
attr title  "ID of the serving eNodeB for the UE, vector"
attr unit  ""
vector 775  CAIN.ueD2DTx[17].nic.phy  servingCell:vector  ETV
attr source  servingCell
attr title  "ID of the serving eNodeB for the UE, vector"
attr unit  ""
vector 807  CAIN.ueD2DTx[18].nic.phy  servingCell:vector  ETV
attr source  servingCell
attr title  "ID of the serving eNodeB for the UE, vector"
attr unit  ""
vector 839  CAIN.ueD2DTx[19].nic.phy  servingCell:vector  ETV
attr source  servingCell
attr title  "ID of the serving eNodeB for the UE, vector"
attr unit  ""
vector 863  CAIN.eNodeB.sctp  "Throughput of Association 3"  ETV
vector 885  CAIN.eNodeB1.sctp  "Throughput of Association 4"  ETV
vector 907  CAIN.eNodeB.sctp  "Throughput of Association 1"  ETV
vector 927  CAIN.eNodeB.sctp  "Fast Recovery State 1:10.0.5.2"  ETV
vector 956  CAIN.eNodeB1.sctp  "Throughput of Association 2"  ETV
vector 976  CAIN.eNodeB1.sctp  "Fast Recovery State 2:10.0.5.1"  ETV
vector 128  CAIN.eNodeB.x2ppp[0].queue  rcvdPk:vector(packetBytes)  ETV
attr interpolationmode  none
attr title  "received packets, vector(packetBytes)"
vector 130  CAIN.eNodeB.x2ppp[0].queue  queueingTime:vector  ETV
attr interpolationmode  none
attr title  "queueing time, vector"
vector 186  CAIN.eNodeB1.x2ppp[0].queue  rcvdPk:vector(packetBytes)  ETV
attr interpolationmode  none
attr title  "received packets, vector(packetBytes)"
vector 188  CAIN.eNodeB1.x2ppp[0].queue  queueingTime:vector  ETV
attr interpolationmode  none
attr title  "queueing time, vector"
vector 137  CAIN.eNodeB.x2ppp[0].ppp  rcvdPkFromHL:vector(packetBytes)  ETV
attr interpolationmode  none
attr source  packetReceivedFromUpper
attr title  "packets received from higher layer, vector(packetBytes)"
vector 133  CAIN.eNodeB.x2ppp[0].ppp  txPk:vector(packetBytes)  ETV
attr interpolationmode  none
attr source  packetSentToLower
attr title  "packets transmitted, vector(packetBytes)"
vector 195  CAIN.eNodeB1.x2ppp[0].ppp  rcvdPkFromHL:vector(packetBytes)  ETV
attr interpolationmode  none
attr source  packetReceivedFromUpper
attr title  "packets received from higher layer, vector(packetBytes)"
vector 191  CAIN.eNodeB1.x2ppp[0].ppp  txPk:vector(packetBytes)  ETV
attr interpolationmode  none
attr source  packetSentToLower
attr title  "packets transmitted, vector(packetBytes)"
vector 192  CAIN.eNodeB1.x2ppp[0].ppp  rxPkOk:vector(packetBytes)  ETV
attr interpolationmode  none
attr source  rxPkOk
attr title  "packets received OK, vector(packetBytes)"
vector 196  CAIN.eNodeB1.x2ppp[0].ppp  passedUpPk:vector(packetBytes)  ETV
attr interpolationmode  none
attr source  packetSentToUpper
attr title  "packets passed to higher layer, vector(packetBytes)"
vector 134  CAIN.eNodeB.x2ppp[0].ppp  rxPkOk:vector(packetBytes)  ETV
attr interpolationmode  none
attr source  rxPkOk
attr title  "packets received OK, vector(packetBytes)"
vector 138  CAIN.eNodeB.x2ppp[0].ppp  passedUpPk:vector(packetBytes)  ETV
attr interpolationmode  none
attr source  packetSentToUpper
attr title  "packets passed to higher layer, vector(packetBytes)"
vector 1005  CAIN.eNodeB1.sctp  "Throughput of Association 4"  ETV
vector 882  CAIN.eNodeB1.sctp  "Peer Rwnd 4"  ETV
vector 1025  CAIN.eNodeB1.sctp  "Fast Recovery State 5:10.0.4.1"  ETV
vector 1052  CAIN.eNodeB1.sctp  "Fast Recovery State 5:10.0.2.2"  ETV
vector 1079  CAIN.eNodeB1.sctp  "Fast Recovery State 5:10.0.5.1"  ETV
vector 1108  CAIN.eNodeB.sctp  "Throughput of Association 3"  ETV
vector 860  CAIN.eNodeB.sctp  "Peer Rwnd 3"  ETV
vector 1128  CAIN.eNodeB.sctp  "Fast Recovery State 6:10.0.4.2"  ETV
vector 1155  CAIN.eNodeB.sctp  "Fast Recovery State 6:10.0.3.2"  ETV
vector 1182  CAIN.eNodeB.sctp  "Fast Recovery State 6:10.0.5.2"  ETV
vector 904  CAIN.eNodeB.sctp  "Peer Rwnd 1"  ETV
vector 1209  CAIN.eNodeB.sctp  "Fast Recovery State 1:10.0.4.2"  ETV
vector 1236  CAIN.eNodeB.sctp  "Fast Recovery State 1:10.0.3.2"  ETV
vector 953  CAIN.eNodeB1.sctp  "Peer Rwnd 2"  ETV
vector 1263  CAIN.eNodeB1.sctp  "Fast Recovery State 2:10.0.4.1"  ETV
vector 1290  CAIN.eNodeB1.sctp  "Fast Recovery State 2:10.0.2.2"  ETV
vector 1035  CAIN.eNodeB1.sctp  "Slow Start Threshold 5:10.0.2.2"  ETV
vector 1036  CAIN.eNodeB1.sctp  "Congestion Window 5:10.0.2.2"  ETV
vector 1037  CAIN.eNodeB1.sctp  "Bandwidth 5:10.0.2.2"  ETV
vector 1040  CAIN.eNodeB1.sctp  "HB Sent 5:10.0.2.2"  ETV
vector 1033  CAIN.eNodeB1.sctp  "RTO 5:10.0.2.2"  ETV
vector 1008  CAIN.eNodeB1.sctp  "Slow Start Threshold 5:10.0.4.1"  ETV
vector 1009  CAIN.eNodeB1.sctp  "Congestion Window 5:10.0.4.1"  ETV
vector 1010  CAIN.eNodeB1.sctp  "Bandwidth 5:10.0.4.1"  ETV
vector 1013  CAIN.eNodeB1.sctp  "HB Sent 5:10.0.4.1"  ETV
vector 1006  CAIN.eNodeB1.sctp  "RTO 5:10.0.4.1"  ETV
vector 1062  CAIN.eNodeB1.sctp  "Slow Start Threshold 5:10.0.5.1"  ETV
vector 1063  CAIN.eNodeB1.sctp  "Congestion Window 5:10.0.5.1"  ETV
vector 1064  CAIN.eNodeB1.sctp  "Bandwidth 5:10.0.5.1"  ETV
vector 1060  CAIN.eNodeB1.sctp  "RTO 5:10.0.5.1"  ETV
vector 1138  CAIN.eNodeB.sctp  "Slow Start Threshold 6:10.0.3.2"  ETV
vector 1139  CAIN.eNodeB.sctp  "Congestion Window 6:10.0.3.2"  ETV
vector 1140  CAIN.eNodeB.sctp  "Bandwidth 6:10.0.3.2"  ETV
vector 1143  CAIN.eNodeB.sctp  "HB Sent 6:10.0.3.2"  ETV
vector 1136  CAIN.eNodeB.sctp  "RTO 6:10.0.3.2"  ETV
vector 1111  CAIN.eNodeB.sctp  "Slow Start Threshold 6:10.0.4.2"  ETV
vector 1112  CAIN.eNodeB.sctp  "Congestion Window 6:10.0.4.2"  ETV
vector 1113  CAIN.eNodeB.sctp  "Bandwidth 6:10.0.4.2"  ETV
vector 1116  CAIN.eNodeB.sctp  "HB Sent 6:10.0.4.2"  ETV
vector 1109  CAIN.eNodeB.sctp  "RTO 6:10.0.4.2"  ETV
vector 1165  CAIN.eNodeB.sctp  "Slow Start Threshold 6:10.0.5.2"  ETV
vector 1166  CAIN.eNodeB.sctp  "Congestion Window 6:10.0.5.2"  ETV
vector 1167  CAIN.eNodeB.sctp  "Bandwidth 6:10.0.5.2"  ETV
vector 1163  CAIN.eNodeB.sctp  "RTO 6:10.0.5.2"  ETV
vector 916  CAIN.eNodeB.sctp  "HB ACK Sent 1:10.0.5.2"  ETV
vector 917  CAIN.eNodeB.sctp  "HB Received 1:10.0.5.2"  ETV
vector 965  CAIN.eNodeB1.sctp  "HB ACK Sent 2:10.0.5.1"  ETV
vector 966  CAIN.eNodeB1.sctp  "HB Received 2:10.0.5.1"  ETV
vector 1219  CAIN.eNodeB.sctp  "Slow Start Threshold 1:10.0.3.2"  ETV
vector 1220  CAIN.eNodeB.sctp  "Congestion Window 1:10.0.3.2"  ETV
vector 1221  CAIN.eNodeB.sctp  "Bandwidth 1:10.0.3.2"  ETV
vector 1224  CAIN.eNodeB.sctp  "HB Sent 1:10.0.3.2"  ETV
vector 1217  CAIN.eNodeB.sctp  "RTO 1:10.0.3.2"  ETV
vector 1192  CAIN.eNodeB.sctp  "Slow Start Threshold 1:10.0.4.2"  ETV
vector 1193  CAIN.eNodeB.sctp  "Congestion Window 1:10.0.4.2"  ETV
vector 1194  CAIN.eNodeB.sctp  "Bandwidth 1:10.0.4.2"  ETV
vector 1197  CAIN.eNodeB.sctp  "HB Sent 1:10.0.4.2"  ETV
vector 1190  CAIN.eNodeB.sctp  "RTO 1:10.0.4.2"  ETV
vector 910  CAIN.eNodeB.sctp  "Slow Start Threshold 1:10.0.5.2"  ETV
vector 911  CAIN.eNodeB.sctp  "Congestion Window 1:10.0.5.2"  ETV
vector 912  CAIN.eNodeB.sctp  "Bandwidth 1:10.0.5.2"  ETV
vector 908  CAIN.eNodeB.sctp  "RTO 1:10.0.5.2"  ETV
vector 1273  CAIN.eNodeB1.sctp  "Slow Start Threshold 2:10.0.2.2"  ETV
vector 1274  CAIN.eNodeB1.sctp  "Congestion Window 2:10.0.2.2"  ETV
vector 1275  CAIN.eNodeB1.sctp  "Bandwidth 2:10.0.2.2"  ETV
vector 1278  CAIN.eNodeB1.sctp  "HB Sent 2:10.0.2.2"  ETV
vector 1271  CAIN.eNodeB1.sctp  "RTO 2:10.0.2.2"  ETV
vector 1246  CAIN.eNodeB1.sctp  "Slow Start Threshold 2:10.0.4.1"  ETV
vector 1247  CAIN.eNodeB1.sctp  "Congestion Window 2:10.0.4.1"  ETV
vector 1248  CAIN.eNodeB1.sctp  "Bandwidth 2:10.0.4.1"  ETV
vector 1251  CAIN.eNodeB1.sctp  "HB Sent 2:10.0.4.1"  ETV
vector 1244  CAIN.eNodeB1.sctp  "RTO 2:10.0.4.1"  ETV
vector 959  CAIN.eNodeB1.sctp  "Slow Start Threshold 2:10.0.5.1"  ETV
vector 960  CAIN.eNodeB1.sctp  "Congestion Window 2:10.0.5.1"  ETV
vector 961  CAIN.eNodeB1.sctp  "Bandwidth 2:10.0.5.1"  ETV
vector 957  CAIN.eNodeB1.sctp  "RTO 2:10.0.5.1"  ETV
vector 1173  CAIN.eNodeB.sctp  "HB ACK Received 6:10.0.5.2"  ETV
vector 1164  CAIN.eNodeB.sctp  "RTT 6:10.0.5.2"  ETV
vector 1070  CAIN.eNodeB1.sctp  "HB ACK Received 5:10.0.5.1"  ETV
vector 1061  CAIN.eNodeB1.sctp  "RTT 5:10.0.5.1"  ETV
vector 1171  CAIN.eNodeB.sctp  "HB ACK Sent 6:10.0.5.2"  ETV
vector 1172  CAIN.eNodeB.sctp  "HB Received 6:10.0.5.2"  ETV
vector 1068  CAIN.eNodeB1.sctp  "HB ACK Sent 5:10.0.5.1"  ETV
vector 1069  CAIN.eNodeB1.sctp  "HB Received 5:10.0.5.1"  ETV
vector 967  CAIN.eNodeB1.sctp  "HB ACK Received 2:10.0.5.1"  ETV
vector 958  CAIN.eNodeB1.sctp  "RTT 2:10.0.5.1"  ETV
vector 918  CAIN.eNodeB.sctp  "HB ACK Received 1:10.0.5.2"  ETV
vector 909  CAIN.eNodeB.sctp  "RTT 1:10.0.5.2"  ETV
vector 96  CAIN.eNodeB.nic.mac  receivedPacketFromLowerLayer:vector(packetBytes)  ETV
attr interpolationmode  none
attr source  receivedPacketFromLowerLayer
vector 1305  CAIN.eNodeB.sctp  "SendQueue of Association 6"  ETV
vector 1168  CAIN.eNodeB.sctp  "TSN Sent 6:10.0.5.2"  ETV
vector 1175  CAIN.eNodeB.sctp  "Outstanding Bytes 6:10.0.5.2"  ETV
vector 848  CAIN.eNodeB.sctp  "Outstanding Bytes 3:Total"  ETV
vector 1174  CAIN.eNodeB.sctp  "Queued Sent Bytes 6:10.0.5.2"  ETV
vector 847  CAIN.eNodeB.sctp  "Queued Sent Bytes 3:Total"  ETV
vector 963  CAIN.eNodeB1.sctp  "TSN Received 2:10.0.5.1"  ETV
vector 939  CAIN.eNodeB1.sctp  "Queued Received Bytes 2:Total"  ETV
vector 935  CAIN.eNodeB1.sctp  "Advertised Receiver Window 2"  ETV
vector 944  CAIN.eNodeB1.sctp  "Number of Total Gap Blocks Stored 2"  ETV
vector 945  CAIN.eNodeB1.sctp  "Number of Revokable Gap Blocks Stored 2"  ETV
vector 946  CAIN.eNodeB1.sctp  "Number of Non-Revokable Gap Blocks Stored 2"  ETV
vector 947  CAIN.eNodeB1.sctp  "Number of Duplicate TSNs Stored 2"  ETV
vector 951  CAIN.eNodeB1.sctp  "Length of SACK Sent 2"  ETV
vector 948  CAIN.eNodeB1.sctp  "Number of Revokable Gap Blocks Sent 2"  ETV
vector 949  CAIN.eNodeB1.sctp  "Number of Non-Revokable Gap Blocks Sent 2"  ETV
vector 950  CAIN.eNodeB1.sctp  "Number of Duplicate TSNs Sent 2"  ETV
vector 955  CAIN.eNodeB1.sctp  "End to End Delay of Association 2"  ETV
vector 199  CAIN.eNodeB1.x2App[0].client  rcvdPk:vector(packetBytes)  ETV
attr interpolationmode  none
attr source  rcvdPk
attr title  "packets received, vector(packetBytes)"
vector 1304  CAIN.eNodeB.sctp  "Number of Gap Blocks in Last SACK of Association 6"  ETV
vector 849  CAIN.eNodeB.sctp  "Number of Revokable Gap Blocks in SACK 3"  ETV
vector 850  CAIN.eNodeB.sctp  "Number of Non-Revokable Gap Blocks in SACK 3"  ETV
vector 1185  CAIN.eNodeB.sctp  "TSN Acked CumAck 6:10.0.5.2"  ETV
vector 1151  CAIN.eNodeB.sctp  "Number of Gap Acked Chunks in Last SACK 6:10.0.3.2"  ETV
vector 1152  CAIN.eNodeB.sctp  "Number of Non-Revokable Gap Acked Chunks in Last SACK 6:10.0.3.2"  ETV
vector 1153  CAIN.eNodeB.sctp  "Number of Gap Missed Chunks in Last SACK 6:10.0.3.2"  ETV
vector 1124  CAIN.eNodeB.sctp  "Number of Gap Acked Chunks in Last SACK 6:10.0.4.2"  ETV
vector 1125  CAIN.eNodeB.sctp  "Number of Non-Revokable Gap Acked Chunks in Last SACK 6:10.0.4.2"  ETV
vector 1126  CAIN.eNodeB.sctp  "Number of Gap Missed Chunks in Last SACK 6:10.0.4.2"  ETV
vector 1178  CAIN.eNodeB.sctp  "Number of Gap Acked Chunks in Last SACK 6:10.0.5.2"  ETV
vector 1179  CAIN.eNodeB.sctp  "Number of Non-Revokable Gap Acked Chunks in Last SACK 6:10.0.5.2"  ETV
vector 1180  CAIN.eNodeB.sctp  "Number of Gap Missed Chunks in Last SACK 6:10.0.5.2"  ETV
vector 859  CAIN.eNodeB.sctp  "Arwnd in Last SACK 3"  ETV
vector 1187  CAIN.eNodeB.sctp  "TSN PseudoCumAck 6:10.0.5.2"  ETV
vector 1188  CAIN.eNodeB.sctp  "TSN RTXPseudoCumAck 6:10.0.5.2"  ETV
vector 1181  CAIN.eNodeB.sctp  "Partial Bytes Acked 6:10.0.5.2"  ETV
vector 1333  CAIN.ueD2DTx[12].tcp  tcpRcvQueueBytes  ETV
vector 1320  CAIN.ueD2DTx[12].tcp  "advertised window"  ETV
vector 1319  CAIN.ueD2DTx[12].tcp  "receive window"  ETV
vector 1322  CAIN.ueD2DTx[12].tcp  "sent ack"  ETV
vector 589  CAIN.ueD2DTx[12].nic.pdcpRrc  receivedPacketFromUpperLayer:vector(packetBytes)  ETV
attr interpolationmode  none
attr source  receivedPacketFromUpperLayer
vector 592  CAIN.ueD2DTx[12].nic.pdcpRrc  sentPacketToLowerLayer:vector(packetBytes)  ETV
attr interpolationmode  none
attr source  sentPacketToLowerLayer
vector 593  CAIN.ueD2DTx[12].nic.mac  receivedPacketFromUpperLayer:vector(packetBytes)  ETV
attr interpolationmode  none
attr source  receivedPacketFromUpperLayer
vector 603  CAIN.ueD2DTx[12].nic.mac  CainHopMessageSent:vector  ETV
attr interpolationmode  none
attr title  "# of Sent CAIN hop message, vector"
vector 596  CAIN.ueD2DTx[12].nic.mac  sentPacketToLowerLayer:vector(packetBytes)  ETV
attr interpolationmode  none
attr source  sentPacketToLowerLayer
vector 754  CAIN.ueD2DTx[17].nic.mac  receivedPacketFromLowerLayer:vector(packetBytes)  ETV
attr interpolationmode  none
attr source  receivedPacketFromLowerLayer
vector 756  CAIN.ueD2DTx[17].nic.mac  sentPacketToLowerLayer:vector(packetBytes)  ETV
attr interpolationmode  none
attr source  sentPacketToLowerLayer
vector 242  CAIN.ueD2DTx[1].nic.mac  receivedPacketFromLowerLayer:vector(packetBytes)  ETV
attr interpolationmode  none
attr source  receivedPacketFromLowerLayer
vector 244  CAIN.ueD2DTx[1].nic.mac  sentPacketToLowerLayer:vector(packetBytes)  ETV
attr interpolationmode  none
attr source  sentPacketToLowerLayer
vector 1357  CAIN.ueD2DTx[10].tcp  tcpRcvQueueBytes  ETV
vector 1344  CAIN.ueD2DTx[10].tcp  "advertised window"  ETV
vector 1343  CAIN.ueD2DTx[10].tcp  "receive window"  ETV
vector 1346  CAIN.ueD2DTx[10].tcp  "sent ack"  ETV
vector 525  CAIN.ueD2DTx[10].nic.pdcpRrc  receivedPacketFromUpperLayer:vector(packetBytes)  ETV
attr interpolationmode  none
attr source  receivedPacketFromUpperLayer
vector 528  CAIN.ueD2DTx[10].nic.pdcpRrc  sentPacketToLowerLayer:vector(packetBytes)  ETV
attr interpolationmode  none
attr source  sentPacketToLowerLayer
vector 529  CAIN.ueD2DTx[10].nic.mac  receivedPacketFromUpperLayer:vector(packetBytes)  ETV
attr interpolationmode  none
attr source  receivedPacketFromUpperLayer
vector 532  CAIN.ueD2DTx[10].nic.mac  sentPacketToLowerLayer:vector(packetBytes)  ETV
attr interpolationmode  none
attr source  sentPacketToLowerLayer
vector 111  CAIN.eNodeB.nic.mac  racpkt:vector  ETV
attr interpolationmode  none
attr title  "eNB received racpkt message, vector"
vector 112  CAIN.eNodeB.nic.mac  racDistanceSignal:vector  ETV
attr interpolationmode  none
attr title  "Rac distance to enb, vector"
vector 113  CAIN.eNodeB.nic.mac  racServedDevsSignal:vector  ETV
attr interpolationmode  none
attr title  "# of devices served on rac arriavall, vector"
vector 106  CAIN.eNodeB.nic.mac  DistanceSignal:vector  ETV
attr interpolationmode  none
attr title  "Distance to enb, vector"
vector 101  CAIN.eNodeB.nic.mac  CainHopMessage:vector  ETV
attr interpolationmode  none
attr title  "eNB received CAIN hop message, vector"
vector 98  CAIN.eNodeB.nic.mac  sentPacketToLowerLayer:vector(packetBytes)  ETV
attr interpolationmode  none
attr source  sentPacketToLowerLayer
vector 249  CAIN.ueD2DTx[1].nic.mac  DropedHopMessage:vector  ETV
attr interpolationmode  none
attr title  "Droped Hop CAIN message due to RB not available, vector"
vector 530  CAIN.ueD2DTx[10].nic.mac  receivedPacketFromLowerLayer:vector(packetBytes)  ETV
attr interpolationmode  none
attr source  receivedPacketFromLowerLayer
vector 1381  CAIN.ueD2DTx[3].tcp  tcpRcvQueueBytes  ETV
vector 1368  CAIN.ueD2DTx[3].tcp  "advertised window"  ETV
vector 1367  CAIN.ueD2DTx[3].tcp  "receive window"  ETV
vector 1370  CAIN.ueD2DTx[3].tcp  "sent ack"  ETV
vector 301  CAIN.ueD2DTx[3].nic.pdcpRrc  receivedPacketFromUpperLayer:vector(packetBytes)  ETV
attr interpolationmode  none
attr source  receivedPacketFromUpperLayer
vector 304  CAIN.ueD2DTx[3].nic.pdcpRrc  sentPacketToLowerLayer:vector(packetBytes)  ETV
attr interpolationmode  none
attr source  sentPacketToLowerLayer
vector 305  CAIN.ueD2DTx[3].nic.mac  receivedPacketFromUpperLayer:vector(packetBytes)  ETV
attr interpolationmode  none
attr source  receivedPacketFromUpperLayer
vector 315  CAIN.ueD2DTx[3].nic.mac  CainHopMessageSent:vector  ETV
attr interpolationmode  none
attr title  "# of Sent CAIN hop message, vector"
vector 308  CAIN.ueD2DTx[3].nic.mac  sentPacketToLowerLayer:vector(packetBytes)  ETV
attr interpolationmode  none
attr source  sentPacketToLowerLayer
vector 531  CAIN.ueD2DTx[10].nic.mac  sentPacketToUpperLayer:vector(packetBytes)  ETV
attr interpolationmode  none
attr source  sentPacketToUpperLayer
vector 115  CAIN.eNodeB.nic.phy  averageCqiUlvect:vector  ETV
attr source  averageCqiUlvect
attr title  "Average Cqi reported in UL, vector"
attr unit  cqi
vector 1405  CAIN.ueD2DTx[19].tcp  tcpRcvQueueBytes  ETV
vector 1392  CAIN.ueD2DTx[19].tcp  "advertised window"  ETV
vector 1391  CAIN.ueD2DTx[19].tcp  "receive window"  ETV
vector 1394  CAIN.ueD2DTx[19].tcp  "sent ack"  ETV
vector 813  CAIN.ueD2DTx[19].nic.pdcpRrc  receivedPacketFromUpperLayer:vector(packetBytes)  ETV
attr interpolationmode  none
attr source  receivedPacketFromUpperLayer
vector 816  CAIN.ueD2DTx[19].nic.pdcpRrc  sentPacketToLowerLayer:vector(packetBytes)  ETV
attr interpolationmode  none
attr source  sentPacketToLowerLayer
vector 817  CAIN.ueD2DTx[19].nic.mac  receivedPacketFromUpperLayer:vector(packetBytes)  ETV
attr interpolationmode  none
attr source  receivedPacketFromUpperLayer
vector 820  CAIN.ueD2DTx[19].nic.mac  sentPacketToLowerLayer:vector(packetBytes)  ETV
attr interpolationmode  none
attr source  sentPacketToLowerLayer
vector 99  CAIN.eNodeB.nic.mac  measuredItbs:vector  ETV
attr source  measuredItbs
attr title  "TBS index, vector"
attr unit  ""
vector 818  CAIN.ueD2DTx[19].nic.mac  receivedPacketFromLowerLayer:vector(packetBytes)  ETV
attr interpolationmode  none
attr source  receivedPacketFromLowerLayer
vector 1429  CAIN.ueD2DTx[16].tcp  tcpRcvQueueBytes  ETV
vector 1416  CAIN.ueD2DTx[16].tcp  "advertised window"  ETV
vector 1415  CAIN.ueD2DTx[16].tcp  "receive window"  ETV
vector 1418  CAIN.ueD2DTx[16].tcp  "sent ack"  ETV
vector 717  CAIN.ueD2DTx[16].nic.pdcpRrc  receivedPacketFromUpperLayer:vector(packetBytes)  ETV
attr interpolationmode  none
attr source  receivedPacketFromUpperLayer
vector 720  CAIN.ueD2DTx[16].nic.pdcpRrc  sentPacketToLowerLayer:vector(packetBytes)  ETV
attr interpolationmode  none
attr source  sentPacketToLowerLayer
vector 721  CAIN.ueD2DTx[16].nic.mac  receivedPacketFromUpperLayer:vector(packetBytes)  ETV
attr interpolationmode  none
attr source  receivedPacketFromUpperLayer
vector 731  CAIN.ueD2DTx[16].nic.mac  CainHopMessageSent:vector  ETV
attr interpolationmode  none
attr title  "# of Sent CAIN hop message, vector"
vector 724  CAIN.ueD2DTx[16].nic.mac  sentPacketToLowerLayer:vector(packetBytes)  ETV
attr interpolationmode  none
attr source  sentPacketToLowerLayer
vector 819  CAIN.ueD2DTx[19].nic.mac  sentPacketToUpperLayer:vector(packetBytes)  ETV
attr interpolationmode  none
attr source  sentPacketToUpperLayer
vector 97  CAIN.eNodeB.nic.mac  sentPacketToUpperLayer:vector(packetBytes)  ETV
attr interpolationmode  none
attr source  sentPacketToUpperLayer
vector 92  CAIN.eNodeB.nic.pdcpRrc  receivedPacketFromLowerLayer:vector(packetBytes)  ETV
attr interpolationmode  none
attr source  receivedPacketFromLowerLayer
vector 93  CAIN.eNodeB.nic.pdcpRrc  sentPacketToUpperLayer:vector(packetBytes)  ETV
attr interpolationmode  none
attr source  sentPacketToUpperLayer
vector 91  CAIN.eNodeB.nic.pdcpRrc  receivedPacketFromUpperLayer:vector(packetBytes)  ETV
attr interpolationmode  none
attr source  receivedPacketFromUpperLayer
vector 94  CAIN.eNodeB.nic.pdcpRrc  sentPacketToLowerLayer:vector(packetBytes)  ETV
attr interpolationmode  none
attr source  sentPacketToLowerLayer
vector 95  CAIN.eNodeB.nic.mac  receivedPacketFromUpperLayer:vector(packetBytes)  ETV
attr interpolationmode  none
attr source  receivedPacketFromUpperLayer
vector 1453  CAIN.ueD2DTx[5].tcp  tcpRcvQueueBytes  ETV
vector 1440  CAIN.ueD2DTx[5].tcp  "advertised window"  ETV
vector 1439  CAIN.ueD2DTx[5].tcp  "receive window"  ETV
vector 1442  CAIN.ueD2DTx[5].tcp  "sent ack"  ETV
vector 365  CAIN.ueD2DTx[5].nic.pdcpRrc  receivedPacketFromUpperLayer:vector(packetBytes)  ETV
attr interpolationmode  none
attr source  receivedPacketFromUpperLayer
vector 368  CAIN.ueD2DTx[5].nic.pdcpRrc  sentPacketToLowerLayer:vector(packetBytes)  ETV
attr interpolationmode  none
attr source  sentPacketToLowerLayer
vector 369  CAIN.ueD2DTx[5].nic.mac  receivedPacketFromUpperLayer:vector(packetBytes)  ETV
attr interpolationmode  none
attr source  receivedPacketFromUpperLayer
vector 379  CAIN.ueD2DTx[5].nic.mac  CainHopMessageSent:vector  ETV
attr interpolationmode  none
attr title  "# of Sent CAIN hop message, vector"
vector 372  CAIN.ueD2DTx[5].nic.mac  sentPacketToLowerLayer:vector(packetBytes)  ETV
attr interpolationmode  none
attr source  sentPacketToLowerLayer
vector 228  CAIN.ueD2DTx[0].nic.phy  averageCqiDlvect:vector  ETV
attr source  averageCqiDlvect
attr title  "Average Cqi reported in DL, vector"
attr unit  cqi
vector 210  CAIN.ueD2DTx[0].nic.mac  receivedPacketFromLowerLayer:vector(packetBytes)  ETV
attr interpolationmode  none
attr source  receivedPacketFromLowerLayer
vector 212  CAIN.ueD2DTx[0].nic.mac  sentPacketToLowerLayer:vector(packetBytes)  ETV
attr interpolationmode  none
attr source  sentPacketToLowerLayer
vector 211  CAIN.ueD2DTx[0].nic.mac  sentPacketToUpperLayer:vector(packetBytes)  ETV
attr interpolationmode  none
attr source  sentPacketToUpperLayer
vector 206  CAIN.ueD2DTx[0].nic.pdcpRrc  receivedPacketFromLowerLayer:vector(packetBytes)  ETV
attr interpolationmode  none
attr source  receivedPacketFromLowerLayer
vector 207  CAIN.ueD2DTx[0].nic.pdcpRrc  sentPacketToUpperLayer:vector(packetBytes)  ETV
attr interpolationmode  none
attr source  sentPacketToUpperLayer
vector 1477  CAIN.ueD2DTx[13].tcp  tcpRcvQueueBytes  ETV
vector 1464  CAIN.ueD2DTx[13].tcp  "advertised window"  ETV
vector 1463  CAIN.ueD2DTx[13].tcp  "receive window"  ETV
vector 1466  CAIN.ueD2DTx[13].tcp  "sent ack"  ETV
vector 621  CAIN.ueD2DTx[13].nic.pdcpRrc  receivedPacketFromUpperLayer:vector(packetBytes)  ETV
attr interpolationmode  none
attr source  receivedPacketFromUpperLayer
vector 624  CAIN.ueD2DTx[13].nic.pdcpRrc  sentPacketToLowerLayer:vector(packetBytes)  ETV
attr interpolationmode  none
attr source  sentPacketToLowerLayer
vector 625  CAIN.ueD2DTx[13].nic.mac  receivedPacketFromUpperLayer:vector(packetBytes)  ETV
attr interpolationmode  none
attr source  receivedPacketFromUpperLayer
vector 635  CAIN.ueD2DTx[13].nic.mac  CainHopMessageSent:vector  ETV
attr interpolationmode  none
attr title  "# of Sent CAIN hop message, vector"
vector 628  CAIN.ueD2DTx[13].nic.mac  sentPacketToLowerLayer:vector(packetBytes)  ETV
attr interpolationmode  none
attr source  sentPacketToLowerLayer
vector 1501  CAIN.ueD2DTx[11].tcp  tcpRcvQueueBytes  ETV
vector 1488  CAIN.ueD2DTx[11].tcp  "advertised window"  ETV
vector 1487  CAIN.ueD2DTx[11].tcp  "receive window"  ETV
vector 1490  CAIN.ueD2DTx[11].tcp  "sent ack"  ETV
vector 557  CAIN.ueD2DTx[11].nic.pdcpRrc  receivedPacketFromUpperLayer:vector(packetBytes)  ETV
attr interpolationmode  none
attr source  receivedPacketFromUpperLayer
vector 560  CAIN.ueD2DTx[11].nic.pdcpRrc  sentPacketToLowerLayer:vector(packetBytes)  ETV
attr interpolationmode  none
attr source  sentPacketToLowerLayer
vector 561  CAIN.ueD2DTx[11].nic.mac  receivedPacketFromUpperLayer:vector(packetBytes)  ETV
attr interpolationmode  none
attr source  receivedPacketFromUpperLayer
vector 1525  CAIN.ueD2DTx[8].tcp  tcpRcvQueueBytes  ETV
vector 1512  CAIN.ueD2DTx[8].tcp  "advertised window"  ETV
vector 1511  CAIN.ueD2DTx[8].tcp  "receive window"  ETV
vector 1514  CAIN.ueD2DTx[8].tcp  "sent ack"  ETV
vector 461  CAIN.ueD2DTx[8].nic.pdcpRrc  receivedPacketFromUpperLayer:vector(packetBytes)  ETV
attr interpolationmode  none
attr source  receivedPacketFromUpperLayer
vector 464  CAIN.ueD2DTx[8].nic.pdcpRrc  sentPacketToLowerLayer:vector(packetBytes)  ETV
attr interpolationmode  none
attr source  sentPacketToLowerLayer
vector 465  CAIN.ueD2DTx[8].nic.mac  receivedPacketFromUpperLayer:vector(packetBytes)  ETV
attr interpolationmode  none
attr source  receivedPacketFromUpperLayer
vector 474  CAIN.ueD2DTx[8].nic.mac  CainMessageSent:vector  ETV
attr interpolationmode  none
attr title  "# of Sent CAIN message, vector"
vector 468  CAIN.ueD2DTx[8].nic.mac  sentPacketToLowerLayer:vector(packetBytes)  ETV
attr interpolationmode  none
attr source  sentPacketToLowerLayer
vector 570  CAIN.ueD2DTx[11].nic.mac  CainMessageSent:vector  ETV
attr interpolationmode  none
attr title  "# of Sent CAIN message, vector"
vector 564  CAIN.ueD2DTx[11].nic.mac  sentPacketToLowerLayer:vector(packetBytes)  ETV
attr interpolationmode  none
attr source  sentPacketToLowerLayer
vector 1549  CAIN.ueD2DTx[14].tcp  tcpRcvQueueBytes  ETV
vector 1536  CAIN.ueD2DTx[14].tcp  "advertised window"  ETV
vector 1535  CAIN.ueD2DTx[14].tcp  "receive window"  ETV
vector 1538  CAIN.ueD2DTx[14].tcp  "sent ack"  ETV
vector 653  CAIN.ueD2DTx[14].nic.pdcpRrc  receivedPacketFromUpperLayer:vector(packetBytes)  ETV
attr interpolationmode  none
attr source  receivedPacketFromUpperLayer
vector 656  CAIN.ueD2DTx[14].nic.pdcpRrc  sentPacketToLowerLayer:vector(packetBytes)  ETV
attr interpolationmode  none
attr source  sentPacketToLowerLayer
vector 657  CAIN.ueD2DTx[14].nic.mac  receivedPacketFromUpperLayer:vector(packetBytes)  ETV
attr interpolationmode  none
attr source  receivedPacketFromUpperLayer
vector 667  CAIN.ueD2DTx[14].nic.mac  CainHopMessageSent:vector  ETV
attr interpolationmode  none
attr title  "# of Sent CAIN hop message, vector"
vector 660  CAIN.ueD2DTx[14].nic.mac  sentPacketToLowerLayer:vector(packetBytes)  ETV
attr interpolationmode  none
attr source  sentPacketToLowerLayer
vector 100  CAIN.eNodeB.nic.mac  CainMessage:vector  ETV
attr interpolationmode  none
attr title  "eNB received CAIN message, vector"
vector 1301  CAIN.eNodeB1.sctp  "SendQueue of Association 5"  ETV
vector 1065  CAIN.eNodeB1.sctp  "TSN Sent 5:10.0.5.1"  ETV
vector 1072  CAIN.eNodeB1.sctp  "Outstanding Bytes 5:10.0.5.1"  ETV
vector 870  CAIN.eNodeB1.sctp  "Outstanding Bytes 4:Total"  ETV
vector 1071  CAIN.eNodeB1.sctp  "Queued Sent Bytes 5:10.0.5.1"  ETV
vector 869  CAIN.eNodeB1.sctp  "Queued Sent Bytes 4:Total"  ETV
vector 914  CAIN.eNodeB.sctp  "TSN Received 1:10.0.5.2"  ETV
vector 890  CAIN.eNodeB.sctp  "Queued Received Bytes 1:Total"  ETV
vector 886  CAIN.eNodeB.sctp  "Advertised Receiver Window 1"  ETV
vector 895  CAIN.eNodeB.sctp  "Number of Total Gap Blocks Stored 1"  ETV
vector 896  CAIN.eNodeB.sctp  "Number of Revokable Gap Blocks Stored 1"  ETV
vector 897  CAIN.eNodeB.sctp  "Number of Non-Revokable Gap Blocks Stored 1"  ETV
vector 898  CAIN.eNodeB.sctp  "Number of Duplicate TSNs Stored 1"  ETV
vector 902  CAIN.eNodeB.sctp  "Length of SACK Sent 1"  ETV
vector 899  CAIN.eNodeB.sctp  "Number of Revokable Gap Blocks Sent 1"  ETV
vector 900  CAIN.eNodeB.sctp  "Number of Non-Revokable Gap Blocks Sent 1"  ETV
vector 901  CAIN.eNodeB.sctp  "Number of Duplicate TSNs Sent 1"  ETV
vector 906  CAIN.eNodeB.sctp  "End to End Delay of Association 1"  ETV
vector 141  CAIN.eNodeB.x2App[0].client  rcvdPk:vector(packetBytes)  ETV
attr interpolationmode  none
attr source  rcvdPk
attr title  "packets received, vector(packetBytes)"
vector 1300  CAIN.eNodeB1.sctp  "Number of Gap Blocks in Last SACK of Association 5"  ETV
vector 871  CAIN.eNodeB1.sctp  "Number of Revokable Gap Blocks in SACK 4"  ETV
vector 872  CAIN.eNodeB1.sctp  "Number of Non-Revokable Gap Blocks in SACK 4"  ETV
vector 1082  CAIN.eNodeB1.sctp  "TSN Acked CumAck 5:10.0.5.1"  ETV
vector 1048  CAIN.eNodeB1.sctp  "Number of Gap Acked Chunks in Last SACK 5:10.0.2.2"  ETV
vector 1049  CAIN.eNodeB1.sctp  "Number of Non-Revokable Gap Acked Chunks in Last SACK 5:10.0.2.2"  ETV
vector 1050  CAIN.eNodeB1.sctp  "Number of Gap Missed Chunks in Last SACK 5:10.0.2.2"  ETV
vector 1021  CAIN.eNodeB1.sctp  "Number of Gap Acked Chunks in Last SACK 5:10.0.4.1"  ETV
vector 1022  CAIN.eNodeB1.sctp  "Number of Non-Revokable Gap Acked Chunks in Last SACK 5:10.0.4.1"  ETV
vector 1023  CAIN.eNodeB1.sctp  "Number of Gap Missed Chunks in Last SACK 5:10.0.4.1"  ETV
vector 1075  CAIN.eNodeB1.sctp  "Number of Gap Acked Chunks in Last SACK 5:10.0.5.1"  ETV
vector 1076  CAIN.eNodeB1.sctp  "Number of Non-Revokable Gap Acked Chunks in Last SACK 5:10.0.5.1"  ETV
vector 1077  CAIN.eNodeB1.sctp  "Number of Gap Missed Chunks in Last SACK 5:10.0.5.1"  ETV
vector 881  CAIN.eNodeB1.sctp  "Arwnd in Last SACK 4"  ETV
vector 1084  CAIN.eNodeB1.sctp  "TSN PseudoCumAck 5:10.0.5.1"  ETV
vector 1085  CAIN.eNodeB1.sctp  "TSN RTXPseudoCumAck 5:10.0.5.1"  ETV
vector 1078  CAIN.eNodeB1.sctp  "Partial Bytes Acked 5:10.0.5.1"  ETV
vector 108  CAIN.eNodeB.nic.mac  ServedDevs:vector  ETV
attr interpolationmode  none
attr title  "# of devices served on cain forwarding, vector"
vector 1573  CAIN.ueD2DTx[7].tcp  tcpRcvQueueBytes  ETV
vector 1560  CAIN.ueD2DTx[7].tcp  "advertised window"  ETV
vector 1559  CAIN.ueD2DTx[7].tcp  "receive window"  ETV
vector 1562  CAIN.ueD2DTx[7].tcp  "sent ack"  ETV
vector 429  CAIN.ueD2DTx[7].nic.pdcpRrc  receivedPacketFromUpperLayer:vector(packetBytes)  ETV
attr interpolationmode  none
attr source  receivedPacketFromUpperLayer
vector 432  CAIN.ueD2DTx[7].nic.pdcpRrc  sentPacketToLowerLayer:vector(packetBytes)  ETV
attr interpolationmode  none
attr source  sentPacketToLowerLayer
vector 433  CAIN.ueD2DTx[7].nic.mac  receivedPacketFromUpperLayer:vector(packetBytes)  ETV
attr interpolationmode  none
attr source  receivedPacketFromUpperLayer
vector 442  CAIN.ueD2DTx[7].nic.mac  CainMessageSent:vector  ETV
attr interpolationmode  none
attr title  "# of Sent CAIN message, vector"
vector 436  CAIN.ueD2DTx[7].nic.mac  sentPacketToLowerLayer:vector(packetBytes)  ETV
attr interpolationmode  none
attr source  sentPacketToLowerLayer
vector 1597  CAIN.ueD2DTx[2].tcp  tcpRcvQueueBytes  ETV
vector 1584  CAIN.ueD2DTx[2].tcp  "advertised window"  ETV
vector 1583  CAIN.ueD2DTx[2].tcp  "receive window"  ETV
vector 1586  CAIN.ueD2DTx[2].tcp  "sent ack"  ETV
vector 269  CAIN.ueD2DTx[2].nic.pdcpRrc  receivedPacketFromUpperLayer:vector(packetBytes)  ETV
attr interpolationmode  none
attr source  receivedPacketFromUpperLayer
vector 272  CAIN.ueD2DTx[2].nic.pdcpRrc  sentPacketToLowerLayer:vector(packetBytes)  ETV
attr interpolationmode  none
attr source  sentPacketToLowerLayer
vector 273  CAIN.ueD2DTx[2].nic.mac  receivedPacketFromUpperLayer:vector(packetBytes)  ETV
attr interpolationmode  none
attr source  receivedPacketFromUpperLayer
vector 276  CAIN.ueD2DTx[2].nic.mac  sentPacketToLowerLayer:vector(packetBytes)  ETV
attr interpolationmode  none
attr source  sentPacketToLowerLayer
vector 154  CAIN.eNodeB1.nic.mac  receivedPacketFromLowerLayer:vector(packetBytes)  ETV
attr interpolationmode  none
attr source  receivedPacketFromLowerLayer
vector 274  CAIN.ueD2DTx[2].nic.mac  receivedPacketFromLowerLayer:vector(packetBytes)  ETV
attr interpolationmode  none
attr source  receivedPacketFromLowerLayer
vector 275  CAIN.ueD2DTx[2].nic.mac  sentPacketToUpperLayer:vector(packetBytes)  ETV
attr interpolationmode  none
attr source  sentPacketToUpperLayer
vector 1621  CAIN.ueD2DTx[1].tcp  tcpRcvQueueBytes  ETV
vector 1608  CAIN.ueD2DTx[1].tcp  "advertised window"  ETV
vector 1607  CAIN.ueD2DTx[1].tcp  "receive window"  ETV
vector 1610  CAIN.ueD2DTx[1].tcp  "sent ack"  ETV
vector 237  CAIN.ueD2DTx[1].nic.pdcpRrc  receivedPacketFromUpperLayer:vector(packetBytes)  ETV
attr interpolationmode  none
attr source  receivedPacketFromUpperLayer
vector 240  CAIN.ueD2DTx[1].nic.pdcpRrc  sentPacketToLowerLayer:vector(packetBytes)  ETV
attr interpolationmode  none
attr source  sentPacketToLowerLayer
vector 241  CAIN.ueD2DTx[1].nic.mac  receivedPacketFromUpperLayer:vector(packetBytes)  ETV
attr interpolationmode  none
attr source  receivedPacketFromUpperLayer
vector 1645  CAIN.ueD2DTx[17].tcp  tcpRcvQueueBytes  ETV
vector 1632  CAIN.ueD2DTx[17].tcp  "advertised window"  ETV
vector 1631  CAIN.ueD2DTx[17].tcp  "receive window"  ETV
vector 1634  CAIN.ueD2DTx[17].tcp  "sent ack"  ETV
vector 749  CAIN.ueD2DTx[17].nic.pdcpRrc  receivedPacketFromUpperLayer:vector(packetBytes)  ETV
attr interpolationmode  none
attr source  receivedPacketFromUpperLayer
vector 752  CAIN.ueD2DTx[17].nic.pdcpRrc  sentPacketToLowerLayer:vector(packetBytes)  ETV
attr interpolationmode  none
attr source  sentPacketToLowerLayer
vector 753  CAIN.ueD2DTx[17].nic.mac  receivedPacketFromUpperLayer:vector(packetBytes)  ETV
attr interpolationmode  none
attr source  receivedPacketFromUpperLayer
vector 1669  CAIN.ueD2DTx[6].tcp  tcpRcvQueueBytes  ETV
vector 1656  CAIN.ueD2DTx[6].tcp  "advertised window"  ETV
vector 1655  CAIN.ueD2DTx[6].tcp  "receive window"  ETV
vector 1658  CAIN.ueD2DTx[6].tcp  "sent ack"  ETV
vector 397  CAIN.ueD2DTx[6].nic.pdcpRrc  receivedPacketFromUpperLayer:vector(packetBytes)  ETV
attr interpolationmode  none
attr source  receivedPacketFromUpperLayer
vector 400  CAIN.ueD2DTx[6].nic.pdcpRrc  sentPacketToLowerLayer:vector(packetBytes)  ETV
attr interpolationmode  none
attr source  sentPacketToLowerLayer
vector 401  CAIN.ueD2DTx[6].nic.mac  receivedPacketFromUpperLayer:vector(packetBytes)  ETV
attr interpolationmode  none
attr source  receivedPacketFromUpperLayer
vector 410  CAIN.ueD2DTx[6].nic.mac  CainMessageSent:vector  ETV
attr interpolationmode  none
attr title  "# of Sent CAIN message, vector"
vector 404  CAIN.ueD2DTx[6].nic.mac  sentPacketToLowerLayer:vector(packetBytes)  ETV
attr interpolationmode  none
attr source  sentPacketToLowerLayer
vector 243  CAIN.ueD2DTx[1].nic.mac  sentPacketToUpperLayer:vector(packetBytes)  ETV
attr interpolationmode  none
attr source  sentPacketToUpperLayer
vector 1693  CAIN.ueD2DTx[9].tcp  tcpRcvQueueBytes  ETV
vector 1680  CAIN.ueD2DTx[9].tcp  "advertised window"  ETV
vector 1679  CAIN.ueD2DTx[9].tcp  "receive window"  ETV
vector 1682  CAIN.ueD2DTx[9].tcp  "sent ack"  ETV
vector 493  CAIN.ueD2DTx[9].nic.pdcpRrc  receivedPacketFromUpperLayer:vector(packetBytes)  ETV
attr interpolationmode  none
attr source  receivedPacketFromUpperLayer
vector 496  CAIN.ueD2DTx[9].nic.pdcpRrc  sentPacketToLowerLayer:vector(packetBytes)  ETV
attr interpolationmode  none
attr source  sentPacketToLowerLayer
vector 497  CAIN.ueD2DTx[9].nic.mac  receivedPacketFromUpperLayer:vector(packetBytes)  ETV
attr interpolationmode  none
attr source  receivedPacketFromUpperLayer
vector 506  CAIN.ueD2DTx[9].nic.mac  CainMessageSent:vector  ETV
attr interpolationmode  none
attr title  "# of Sent CAIN message, vector"
vector 500  CAIN.ueD2DTx[9].nic.mac  sentPacketToLowerLayer:vector(packetBytes)  ETV
attr interpolationmode  none
attr source  sentPacketToLowerLayer
vector 1717  CAIN.ueD2DTx[4].tcp  tcpRcvQueueBytes  ETV
vector 1704  CAIN.ueD2DTx[4].tcp  "advertised window"  ETV
vector 1703  CAIN.ueD2DTx[4].tcp  "receive window"  ETV
vector 1706  CAIN.ueD2DTx[4].tcp  "sent ack"  ETV
vector 333  CAIN.ueD2DTx[4].nic.pdcpRrc  receivedPacketFromUpperLayer:vector(packetBytes)  ETV
attr interpolationmode  none
attr source  receivedPacketFromUpperLayer
vector 336  CAIN.ueD2DTx[4].nic.pdcpRrc  sentPacketToLowerLayer:vector(packetBytes)  ETV
attr interpolationmode  none
attr source  sentPacketToLowerLayer
vector 337  CAIN.ueD2DTx[4].nic.mac  receivedPacketFromUpperLayer:vector(packetBytes)  ETV
attr interpolationmode  none
attr source  receivedPacketFromUpperLayer
vector 347  CAIN.ueD2DTx[4].nic.mac  CainHopMessageSent:vector  ETV
attr interpolationmode  none
attr title  "# of Sent CAIN hop message, vector"
vector 340  CAIN.ueD2DTx[4].nic.mac  sentPacketToLowerLayer:vector(packetBytes)  ETV
attr interpolationmode  none
attr source  sentPacketToLowerLayer
vector 370  CAIN.ueD2DTx[5].nic.mac  receivedPacketFromLowerLayer:vector(packetBytes)  ETV
attr interpolationmode  none
attr source  receivedPacketFromLowerLayer
vector 594  CAIN.ueD2DTx[12].nic.mac  receivedPacketFromLowerLayer:vector(packetBytes)  ETV
attr interpolationmode  none
attr source  receivedPacketFromLowerLayer
vector 1741  CAIN.ueD2DTx[0].tcp  tcpRcvQueueBytes  ETV
vector 1728  CAIN.ueD2DTx[0].tcp  "advertised window"  ETV
vector 1727  CAIN.ueD2DTx[0].tcp  "receive window"  ETV
vector 1730  CAIN.ueD2DTx[0].tcp  "sent ack"  ETV
vector 205  CAIN.ueD2DTx[0].nic.pdcpRrc  receivedPacketFromUpperLayer:vector(packetBytes)  ETV
attr interpolationmode  none
attr source  receivedPacketFromUpperLayer
vector 208  CAIN.ueD2DTx[0].nic.pdcpRrc  sentPacketToLowerLayer:vector(packetBytes)  ETV
attr interpolationmode  none
attr source  sentPacketToLowerLayer
vector 209  CAIN.ueD2DTx[0].nic.mac  receivedPacketFromUpperLayer:vector(packetBytes)  ETV
attr interpolationmode  none
attr source  receivedPacketFromUpperLayer
vector 1765  CAIN.ueD2DTx[15].tcp  tcpRcvQueueBytes  ETV
vector 1752  CAIN.ueD2DTx[15].tcp  "advertised window"  ETV
vector 1751  CAIN.ueD2DTx[15].tcp  "receive window"  ETV
vector 1754  CAIN.ueD2DTx[15].tcp  "sent ack"  ETV
vector 685  CAIN.ueD2DTx[15].nic.pdcpRrc  receivedPacketFromUpperLayer:vector(packetBytes)  ETV
attr interpolationmode  none
attr source  receivedPacketFromUpperLayer
vector 688  CAIN.ueD2DTx[15].nic.pdcpRrc  sentPacketToLowerLayer:vector(packetBytes)  ETV
attr interpolationmode  none
attr source  sentPacketToLowerLayer
vector 689  CAIN.ueD2DTx[15].nic.mac  receivedPacketFromUpperLayer:vector(packetBytes)  ETV
attr interpolationmode  none
attr source  receivedPacketFromUpperLayer
vector 692  CAIN.ueD2DTx[15].nic.mac  sentPacketToLowerLayer:vector(packetBytes)  ETV
attr interpolationmode  none
attr source  sentPacketToLowerLayer
vector 169  CAIN.eNodeB1.nic.mac  racpkt:vector  ETV
attr interpolationmode  none
attr title  "eNB received racpkt message, vector"
vector 170  CAIN.eNodeB1.nic.mac  racDistanceSignal:vector  ETV
attr interpolationmode  none
attr title  "Rac distance to enb, vector"
vector 171  CAIN.eNodeB1.nic.mac  racServedDevsSignal:vector  ETV
attr interpolationmode  none
attr title  "# of devices served on rac arriavall, vector"
vector 156  CAIN.eNodeB1.nic.mac  sentPacketToLowerLayer:vector(packetBytes)  ETV
attr interpolationmode  none
attr source  sentPacketToLowerLayer
vector 690  CAIN.ueD2DTx[15].nic.mac  receivedPacketFromLowerLayer:vector(packetBytes)  ETV
attr interpolationmode  none
attr source  receivedPacketFromLowerLayer
vector 1789  CAIN.ueD2DTx[18].tcp  tcpRcvQueueBytes  ETV
vector 1776  CAIN.ueD2DTx[18].tcp  "advertised window"  ETV
vector 1775  CAIN.ueD2DTx[18].tcp  "receive window"  ETV
vector 1778  CAIN.ueD2DTx[18].tcp  "sent ack"  ETV
vector 781  CAIN.ueD2DTx[18].nic.pdcpRrc  receivedPacketFromUpperLayer:vector(packetBytes)  ETV
attr interpolationmode  none
attr source  receivedPacketFromUpperLayer
vector 784  CAIN.ueD2DTx[18].nic.pdcpRrc  sentPacketToLowerLayer:vector(packetBytes)  ETV
attr interpolationmode  none
attr source  sentPacketToLowerLayer
vector 785  CAIN.ueD2DTx[18].nic.mac  receivedPacketFromUpperLayer:vector(packetBytes)  ETV
attr interpolationmode  none
attr source  receivedPacketFromUpperLayer
vector 262  CAIN.ueD2DTx[1].nic.phy  averageCqiD2Dvect:vector  ETV
attr source  averageCqiD2Dvect
attr title  "Average Cqi reported in D2D, vector"
attr unit  cqi
vector 238  CAIN.ueD2DTx[1].nic.pdcpRrc  receivedPacketFromLowerLayer:vector(packetBytes)  ETV
attr interpolationmode  none
attr source  receivedPacketFromLowerLayer
vector 239  CAIN.ueD2DTx[1].nic.pdcpRrc  sentPacketToUpperLayer:vector(packetBytes)  ETV
attr interpolationmode  none
attr source  sentPacketToUpperLayer
vector 595  CAIN.ueD2DTx[12].nic.mac  sentPacketToUpperLayer:vector(packetBytes)  ETV
attr interpolationmode  none
attr source  sentPacketToUpperLayer
vector 173  CAIN.eNodeB1.nic.phy  averageCqiUlvect:vector  ETV
attr source  averageCqiUlvect
attr title  "Average Cqi reported in UL, vector"
attr unit  cqi
vector 155  CAIN.eNodeB1.nic.mac  sentPacketToUpperLayer:vector(packetBytes)  ETV
attr interpolationmode  none
attr source  sentPacketToUpperLayer
vector 157  CAIN.eNodeB1.nic.mac  measuredItbs:vector  ETV
attr source  measuredItbs
attr title  "TBS index, vector"
attr unit  ""
vector 786  CAIN.ueD2DTx[18].nic.mac  receivedPacketFromLowerLayer:vector(packetBytes)  ETV
attr interpolationmode  none
attr source  receivedPacketFromLowerLayer
vector 788  CAIN.ueD2DTx[18].nic.mac  sentPacketToLowerLayer:vector(packetBytes)  ETV
attr interpolationmode  none
attr source  sentPacketToLowerLayer
vector 443  CAIN.ueD2DTx[7].nic.mac  CainHopMessageSent:vector  ETV
attr interpolationmode  none
attr title  "# of Sent CAIN hop message, vector"
vector 475  CAIN.ueD2DTx[8].nic.mac  CainHopMessageSent:vector  ETV
attr interpolationmode  none
attr title  "# of Sent CAIN hop message, vector"
vector 571  CAIN.ueD2DTx[11].nic.mac  CainHopMessageSent:vector  ETV
attr interpolationmode  none
attr title  "# of Sent CAIN hop message, vector"
vector 411  CAIN.ueD2DTx[6].nic.mac  CainHopMessageSent:vector  ETV
attr interpolationmode  none
attr title  "# of Sent CAIN hop message, vector"
vector 507  CAIN.ueD2DTx[9].nic.mac  CainHopMessageSent:vector  ETV
attr interpolationmode  none
attr title  "# of Sent CAIN hop message, vector"
vector 150  CAIN.eNodeB1.nic.pdcpRrc  receivedPacketFromLowerLayer:vector(packetBytes)  ETV
attr interpolationmode  none
attr source  receivedPacketFromLowerLayer
vector 151  CAIN.eNodeB1.nic.pdcpRrc  sentPacketToUpperLayer:vector(packetBytes)  ETV
attr interpolationmode  none
attr source  sentPacketToUpperLayer
vector 144  CAIN.eNodeB1.udp  sentPk:vector(packetBytes)  ETV
attr interpolationmode  none
attr source  sentPk
attr title  "packets sent, vector(packetBytes)"
vector 175  CAIN.eNodeB1.pppIf.queue  rcvdPk:vector(packetBytes)  ETV
attr interpolationmode  none
attr title  "received packets, vector(packetBytes)"
vector 177  CAIN.eNodeB1.pppIf.queue  queueingTime:vector  ETV
attr interpolationmode  none
attr title  "queueing time, vector"
vector 184  CAIN.eNodeB1.pppIf.ppp  rcvdPkFromHL:vector(packetBytes)  ETV
attr interpolationmode  none
attr source  packetReceivedFromUpper
attr title  "packets received from higher layer, vector(packetBytes)"
vector 180  CAIN.eNodeB1.pppIf.ppp  txPk:vector(packetBytes)  ETV
attr interpolationmode  none
attr source  packetSentToLower
attr title  "packets transmitted, vector(packetBytes)"
vector 109  CAIN.eNodeB.nic.mac  ServedHopDevs:vector  ETV
attr interpolationmode  none
attr title  "# of devices served on hop forwarding, vector"
vector 70  CAIN.pgw.ppp[1].ppp  rxPkOk:vector(packetBytes)  ETV
attr interpolationmode  none
attr source  rxPkOk
attr title  "packets received OK, vector(packetBytes)"
vector 74  CAIN.pgw.ppp[1].ppp  passedUpPk:vector(packetBytes)  ETV
attr interpolationmode  none
attr source  packetSentToUpper
attr title  "packets passed to higher layer, vector(packetBytes)"
vector 44  CAIN.pgw.udp  rcvdPk:vector(packetBytes)  ETV
attr interpolationmode  none
attr source  rcvdPk
attr title  "packets received, vector(packetBytes)"
vector 45  CAIN.pgw.udp  passedUpPk:vector(count)  ETV
attr interpolationmode  none
attr title  "packets passed up, vector(count)"
vector 43  CAIN.pgw.udp  sentPk:vector(packetBytes)  ETV
attr interpolationmode  none
attr source  sentPk
attr title  "packets sent, vector(packetBytes)"
vector 53  CAIN.pgw.ppp[0].queue  rcvdPk:vector(packetBytes)  ETV
attr interpolationmode  none
attr title  "received packets, vector(packetBytes)"
vector 55  CAIN.pgw.ppp[0].queue  queueingTime:vector  ETV
attr interpolationmode  none
attr title  "queueing time, vector"
vector 62  CAIN.pgw.ppp[0].ppp  rcvdPkFromHL:vector(packetBytes)  ETV
attr interpolationmode  none
attr source  packetReceivedFromUpper
attr title  "packets received from higher layer, vector(packetBytes)"
vector 58  CAIN.pgw.ppp[0].ppp  txPk:vector(packetBytes)  ETV
attr interpolationmode  none
attr source  packetSentToLower
attr title  "packets transmitted, vector(packetBytes)"
vector 123  CAIN.eNodeB.pppIf.ppp  rxPkOk:vector(packetBytes)  ETV
attr interpolationmode  none
attr source  rxPkOk
attr title  "packets received OK, vector(packetBytes)"
vector 127  CAIN.eNodeB.pppIf.ppp  passedUpPk:vector(packetBytes)  ETV
attr interpolationmode  none
attr source  packetSentToUpper
attr title  "packets passed to higher layer, vector(packetBytes)"
vector 87  CAIN.eNodeB.udp  rcvdPk:vector(packetBytes)  ETV
attr interpolationmode  none
attr source  rcvdPk
attr title  "packets received, vector(packetBytes)"
vector 88  CAIN.eNodeB.udp  passedUpPk:vector(count)  ETV
attr interpolationmode  none
attr title  "packets passed up, vector(count)"
vector 722  CAIN.ueD2DTx[16].nic.mac  receivedPacketFromLowerLayer:vector(packetBytes)  ETV
attr interpolationmode  none
attr source  receivedPacketFromLowerLayer
vector 723  CAIN.ueD2DTx[16].nic.mac  sentPacketToUpperLayer:vector(packetBytes)  ETV
attr interpolationmode  none
attr source  sentPacketToUpperLayer
vector 378  CAIN.ueD2DTx[5].nic.mac  CainMessageSent:vector  ETV
attr interpolationmode  none
attr title  "# of Sent CAIN message, vector"
vector 626  CAIN.ueD2DTx[13].nic.mac  receivedPacketFromLowerLayer:vector(packetBytes)  ETV
attr interpolationmode  none
attr source  receivedPacketFromLowerLayer
vector 627  CAIN.ueD2DTx[13].nic.mac  sentPacketToUpperLayer:vector(packetBytes)  ETV
attr interpolationmode  none
attr source  sentPacketToUpperLayer
vector 658  CAIN.ueD2DTx[14].nic.mac  receivedPacketFromLowerLayer:vector(packetBytes)  ETV
attr interpolationmode  none
attr source  receivedPacketFromLowerLayer
vector 659  CAIN.ueD2DTx[14].nic.mac  sentPacketToUpperLayer:vector(packetBytes)  ETV
attr interpolationmode  none
attr source  sentPacketToUpperLayer
vector 755  CAIN.ueD2DTx[17].nic.mac  sentPacketToUpperLayer:vector(packetBytes)  ETV
attr interpolationmode  none
attr source  sentPacketToUpperLayer
vector 691  CAIN.ueD2DTx[15].nic.mac  sentPacketToUpperLayer:vector(packetBytes)  ETV
attr interpolationmode  none
attr source  sentPacketToUpperLayer
vector 787  CAIN.ueD2DTx[18].nic.mac  sentPacketToUpperLayer:vector(packetBytes)  ETV
attr interpolationmode  none
attr source  sentPacketToUpperLayer
1108	56378 24 150 150 0.0000001228 0.0000001228 1 0 0 0 0
1219	56402 28 235 235 0.0000006304 0.0000006304 1 65535 65535 65535 4294836225
1220	56430 27 235 235 0.0000006304 0.0000006304 1 8940 8940 8940 79923600
1221	56457 29 235 235 0.0000006304 0.0000006304 1 0.3725 0.3725 0.3725 0.13875625
1217	56486 24 235 235 0.0000006304 0.0000006304 1 3 3 3 9
1224	56510 24 235 235 0.0000006304 0.0000006304 1 1 1 1 1
1236	56534 24 163 163 0.0000003096 0.0000003096 1 0 0 0 0
1192	56558 28 235 235 0.0000006304 0.0000006304 1 65535 65535 65535 4294836225
1193	56586 27 235 235 0.0000006304 0.0000006304 1 8940 8940 8940 79923600
1194	56613 29 235 235 0.0000006304 0.0000006304 1 0.3725 0.3725 0.3725 0.13875625
1190	56642 24 235 235 0.0000006304 0.0000006304 1 3 3 3 9
1197	56666 24 235 235 0.0000006304 0.0000006304 1 1 1 1 1
1209	56690 24 163 163 0.0000003096 0.0000003096 1 0 0 0 0
910	56714 27 235 235 0.0000006304 0.0000006304 1 65535 65535 65535 4294836225
911	56741 26 235 235 0.0000006304 0.0000006304 1 8940 8940 8940 79923600
912	56767 28 235 235 0.0000006304 0.0000006304 1 0.3725 0.3725 0.3725 0.13875625
908	56795 46 235 302 0.0000006304 0.0000008564 2 1 3 4 10
909	56841 30 302 302 0.0000008564 0.0000008564 1 2.26e-07 2.26e-07 2.26e-07 5.1076e-14
914	56871 2510 3461 15072 0.0570000972 0.2570018716 90 2000 2089 184005 376258965
917	59381 44 207 221 0.000000552 0.000000596 2 1 2 3 5
916	59425 44 207 221 0.000000552 0.000000596 2 1 2 3 5
918	59469 46 302 308 0.0000008564 0.0000009004 2 1 2 3 5
927	59515 12 131 131 0 0 1 0 0 0 0
886	59527 86 3461 26091 0.0570000972 0.4570018716 3 65533 65535 196603 12884246539
890	59613 2317 3461 26091 0.0570000972 0.4570018716 93 0 160 182 25932
895	61930 74 3461 26091 0.0570000972 0.4570018716 3 0 0 0 0
896	62004 74 3461 26091 0.0570000972 0.4570018716 3 0 0 0 0
897	62078 74 3461 26091 0.0570000972 0.4570018716 3 0 0 0 0
898	62152 74 3461 26091 0.0570000972 0.4570018716 3 0 0 0 0
899	62226 74 3461 26091 0.0570000972 0.4570018716 3 0 0 0 0
900	62300 74 3461 26091 0.0570000972 0.4570018716 3 0 0 0 0
901	62374 74 3461 26091 0.0570000972 0.4570018716 3 0 0 0 0
902	62448 77 3461 26091 0.0570000972 0.4570018716 3 16 16 48 768
904	62525 27 163 163 0.0000003096 0.0000003096 1 65535 65535 65535 4294836225
906	62552 3039 3464 15153 0.0570000972 0.2570018716 90 9.72e-08 1.3612e-06 0.00011102 1.486951184e-10
907	65591 12 131 131 0 0 1 0 0 0 0
1138	65603 27 178 178 0.000000458 0.000000458 1 65535 65535 65535 4294836225
1139	65630 26 178 178 0.000000458 0.000000458 1 8940 8940 8940 79923600
1140	65656 28 178 178 0.000000458 0.000000458 1 0.3725 0.3725 0.3725 0.13875625
1136	65684 23 178 178 0.000000458 0.000000458 1 3 3 3 9
1143	65707 23 178 178 0.000000458 0.000000458 1 1 1 1 1
1151	65730 76 659 23430 0.0070001912 0.4070019656 3 0 0 0 0
1152	65806 76 659 23430 0.0070001912 0.4070019656 3 0 0 0 0
1153	65882 76 659 23430 0.0070001912 0.4070019656 3 0 0 0 0
1155	65958 24 150 150 0.0000001228 0.0000001228 1 0 0 0 0
1111	65982 27 178 178 0.000000458 0.000000458 1 65535 65535 65535 4294836225
1112	66009 26 178 178 0.000000458 0.000000458 1 8940 8940 8940 79923600
1113	66035 28 178 178 0.000000458 0.000000458 1 0.3725 0.3725 0.3725 0.13875625
1109	66063 23 178 178 0.000000458 0.000000458 1 3 3 3 9
1116	66086 23 178 178 0.000000458 0.000000458 1 1 1 1 1
1124	66109 76 659 23430 0.0070001912 0.4070019656 3 0 0 0 0
1125	66185 76 659 23430 0.0070001912 0.4070019656 3 0 0 0 0
1126	66261 76 659 23430 0.0070001912 0.4070019656 3 0 0 0 0
1128	66337 24 150 150 0.0000001228 0.0000001228 1 0 0 0 0
1165	66361 57 178 65849 0.000000458 1.2070005104 2 65535 65535 131070 8589672450
1166	66418 55 178 65849 0.000000458 1.2070005104 2 8940 8940 17880 159847200
1167	66473 58 178 65849 0.000000458 1.2070005104 2 0.3725 23.84 24.2125 568.48435625
1163	66531 123 178 23430 0.000000458 0.4070019656 5 1 3 7 13
1164	66654 138 255 23430 0.0000006744 0.4070019656 4 1.912e-07 0.2000014552 0.400002182 0.080000709762303
1168	66792 2583 605 12030 0.007 0.2070005104 90 2000 2089 184005 376258965
1172	69375 48 273 287 0.0000007624 0.0000008064 2 1 2 3 5
1171	69423 48 273 287 0.0000007624 0.0000008064 2 1 2 3 5
1173	69471 48 255 265 0.0000006744 0.0000007184 2 1 2 3 5
1174	69519 4872 605 23430 0.007 0.4070019656 180 0 160 12964 1367400
1175	74391 4872 605 23430 0.007 0.4070019656 180 0 160 12964 1367400
1178	79263 76 659 23430 0.0070001912 0.4070019656 3 0 0 0 0
1179	79339 76 659 23430 0.0070001912 0.4070019656 3 0 0 0 0
1180	79415 76 659 23430 0.0070001912 0.4070019656 3 0 0 0 0
1181	79491 76 659 23430 0.0070001912 0.4070019656 3 0 0 0 0
1182	79567 24 150 150 0.0000001228 0.0000001228 1 0 0 0 0
1185	79591 85 659 23430 0.0070001912 0.4070019656 3 2000 2089 6098 12400002
1187	79676 76 659 23430 0.0070001912 0.4070019656 3 0 0 0 0
1188	79752 76 659 23430 0.0070001912 0.4070019656 3 0 0 0 0
1304	79828 76 659 23430 0.0070001912 0.4070019656 3 0 0 0 0
1305	79904 4054 605 12030 0.007 0.2070005104 180 0 80 6482 341850
848	83958 4692 605 23430 0.007 0.4070019656 180 0 160 12964 1367400
847	88650 4692 605 23430 0.007 0.4070019656 180 0 160 12964 1367400
849	93342 73 659 23430 0.0070001912 0.4070019656 3 0 0 0 0
850	93415 73 659 23430 0.0070001912 0.4070019656 3 0 0 0 0
859	93488 85 659 23430 0.0070001912 0.4070019656 3 65533 65535 196603 12884246539
860	93573 112 150 23430 0.0000001228 0.4070019656 4 65533 65535 262138 17179082764
863	93685 12 123 123 0 0 1 0 0 0 0
1005	93697 24 149 149 0.0000001228 0.0000001228 1 0 0 0 0
1273	93721 28 236 236 0.0000006304 0.0000006304 1 65535 65535 65535 4294836225
1274	93749 27 236 236 0.0000006304 0.0000006304 1 8940 8940 8940 79923600
1275	93776 29 236 236 0.0000006304 0.0000006304 1 0.3725 0.3725 0.3725 0.13875625
1271	93805 24 236 236 0.0000006304 0.0000006304 1 3 3 3 9
1278	93829 24 236 236 0.0000006304 0.0000006304 1 1 1 1 1
1290	93853 24 164 164 0.0000003096 0.0000003096 1 0 0 0 0
1246	93877 28 236 236 0.0000006304 0.0000006304 1 65535 65535 65535 4294836225
1247	93905 27 236 236 0.0000006304 0.0000006304 1 8940 8940 8940 79923600
1248	93932 29 236 236 0.0000006304 0.0000006304 1 0.3725 0.3725 0.3725 0.13875625
1244	93961 24 236 236 0.0000006304 0.0000006304 1 3 3 3 9
1251	93985 24 236 236 0.0000006304 0.0000006304 1 1 1 1 1
1263	94009 24 164 164 0.0000003096 0.0000003096 1 0 0 0 0
959	94033 27 236 236 0.0000006304 0.0000006304 1 65535 65535 65535 4294836225
960	94060 26 236 236 0.0000006304 0.0000006304 1 8940 8940 8940 79923600
961	94086 28 236 236 0.0000006304 0.0000006304 1 0.3725 0.3725 0.3725 0.13875625
957	94114 46 236 301 0.0000006304 0.0000008564 2 1 3 4 10
958	94160 30 301 301 0.0000008564 0.0000008564 1 2.26e-07 2.26e-07 2.26e-07 5.1076e-14
963	94190 2500 647 12037 0.0070000972 0.2070018716 90 2000 2089 184005 376258965
966	96690 44 208 222 0.000000552 0.000000596 2 1 2 3 5
965	96734 44 208 222 0.000000552 0.000000596 2 1 2 3 5
967	96778 46 301 307 0.0000008564 0.0000009004 2 1 2 3 5
976	96824 12 132 132 0 0 1 0 0 0 0
935	96836 85 647 23423 0.0070000972 0.4070018716 3 65533 65535 196603 12884246539
939	96921 2306 647 23423 0.0070000972 0.4070018716 93 0 160 182 25932
944	99227 73 647 23423 0.0070000972 0.4070018716 3 0 0 0 0
945	99300 73 647 23423 0.0070000972 0.4070018716 3 0 0 0 0
946	99373 73 647 23423 0.0070000972 0.4070018716 3 0 0 0 0
947	99446 73 647 23423 0.0070000972 0.4070018716 3 0 0 0 0
948	99519 73 647 23423 0.0070000972 0.4070018716 3 0 0 0 0
949	99592 73 647 23423 0.0070000972 0.4070018716 3 0 0 0 0
950	99665 73 647 23423 0.0070000972 0.4070018716 3 0 0 0 0
951	99738 76 647 23423 0.0070000972 0.4070018716 3 16 16 48 768
953	99814 27 164 164 0.0000003096 0.0000003096 1 65535 65535 65535 4294836225
955	99841 3029 650 12118 0.0070000972 0.2070018716 90 9.72e-08 1.3612e-06 0.00011102 1.486951184e-10
956	102870 12 132 132 0 0 1 0 0 0 0
1035	102882 27 177 177 0.000000458 0.000000458 1 65535 65535 65535 4294836225
1036	102909 26 177 177 0.000000458 0.000000458 1 8940 8940 8940 79923600
1037	102935 28 177 177 0.000000458 0.000000458 1 0.3725 0.3725 0.3725 0.13875625
1033	102963 23 177 177 0.000000458 0.000000458 1 3 3 3 9
1040	102986 23 177 177 0.000000458 0.000000458 1 1 1 1 1
1048	103009 77 3473 26098 0.0570001912 0.4570019656 3 0 0 0 0
1049	103086 77 3473 26098 0.0570001912 0.4570019656 3 0 0 0 0
1050	103163 77 3473 26098 0.0570001912 0.4570019656 3 0 0 0 0
1052	103240 24 149 149 0.0000001228 0.0000001228 1 0 0 0 0
1008	103264 27 177 177 0.000000458 0.000000458 1 65535 65535 65535 4294836225
1009	103291 26 177 177 0.000000458 0.000000458 1 8940 8940 8940 79923600
1010	103317 28 177 177 0.000000458 0.000000458 1 0.3725 0.3725 0.3725 0.13875625
1006	103345 23 177 177 0.000000458 0.000000458 1 3 3 3 9
1013	103368 23 177 177 0.000000458 0.000000458 1 1 1 1 1
1021	103391 77 3473 26098 0.0570001912 0.4570019656 3 0 0 0 0
1022	103468 77 3473 26098 0.0570001912 0.4570019656 3 0 0 0 0
1023	103545 77 3473 26098 0.0570001912 0.4570019656 3 0 0 0 0
1025	103622 24 149 149 0.0000001228 0.0000001228 1 0 0 0 0
1062	103646 57 177 68520 0.000000458 1.2570005104 2 65535 65535 131070 8589672450
1063	103703 55 177 68520 0.000000458 1.2570005104 2 8940 8940 17880 159847200
1064	103758 58 177 68520 0.000000458 1.2570005104 2 0.3725 23.84 24.2125 568.48435625
1060	103816 124 177 26098 0.000000458 0.4570019656 5 1 3 7 13
1061	103940 139 256 26098 0.0000006744 0.4570019656 4 1.912e-07 0.2000014552 0.400002182 0.080000709762303
1065	104079 2593 3400 15065 0.057 0.2570005104 90 2000 2089 184005 376258965
1069	106672 48 274 288 0.0000007624 0.0000008064 2 1 2 3 5
1068	106720 48 274 288 0.0000007624 0.0000008064 2 1 2 3 5
1070	106768 48 256 266 0.0000006744 0.0000007184 2 1 2 3 5
1071	106816 4883 3400 26098 0.057 0.4570019656 180 0 160 12964 1367400
1072	111699 4883 3400 26098 0.057 0.4570019656 180 0 160 12964 1367400
1075	116582 77 3473 26098 0.0570001912 0.4570019656 3 0 0 0 0
1076	116659 77 3473 26098 0.0570001912 0.4570019656 3 0 0 0 0
1077	116736 77 3473 26098 0.0570001912 0.4570019656 3 0 0 0 0
1078	116813 77 3473 26098 0.0570001912 0.4570019656 3 0 0 0 0
1079	116890 24 149 149 0.0000001228 0.0000001228 1 0 0 0 0
1082	116914 86 3473 26098 0.0570001912 0.4570019656 3 2000 2089 6098 12400002
1084	117000 77 3473 26098 0.0570001912 0.4570019656 3 0 0 0 0
1085	117077 77 3473 26098 0.0570001912 0.4570019656 3 0 0 0 0
1300	117154 77 3473 26098 0.0570001912 0.4570019656 3 0 0 0 0
1301	117231 4084 3400 15065 0.057 0.2570005104 180 0 80 6482 341850
870	121315 4703 3400 26098 0.057 0.4570019656 180 0 160 12964 1367400
869	126018 4703 3400 26098 0.057 0.4570019656 180 0 160 12964 1367400
871	130721 74 3473 26098 0.0570001912 0.4570019656 3 0 0 0 0
872	130795 74 3473 26098 0.0570001912 0.4570019656 3 0 0 0 0
881	130869 86 3473 26098 0.0570001912 0.4570019656 3 65533 65535 196603 12884246539
882	130955 113 149 26098 0.0000001228 0.4570019656 4 65533 65535 262138 17179082764
885	131068 12 128 128 0 0 1 0 0 0 0
8	131080 8 0 0 0 0 1 0 0 0 0
9	131088 8 0 0 0 0 1 0 0 0 0
24	131096 9 0 0 0 0 1 0 0 0 0
25	131105 9 0 0 0 0 1 0 0 0 0
35	131114 9 0 0 0 0 1 0 0 0 0
36	131123 9 0 0 0 0 1 0 0 0 0
43	131132 364 162888 511385 3.0340001132 9.0950001132 14 52 52 728 37856
44	131496 364 162886 511383 3.0340001132 9.0950001132 14 52 52 728 37856
45	131860 355 162886 511383 3.0340001132 9.0950001132 14 1 14 105 1015
53	132215 364 162890 511387 3.0340001132 9.0950001132 14 72 72 1008 72576
55	132579 350 162890 511387 3.0340001132 9.0950001132 14 0 0 0 0
56	132929 9 0 0 0 0 1 0 0 0 0
57	132938 709 0 511389 0 9.0950001764 29 0 1 14 14
58	133647 364 162891 511388 3.0340001132 9.0950001132 14 79 79 1106 87374
62	134011 364 162891 511388 3.0340001132 9.0950001132 14 72 72 1008 72576
67	134375 9 0 0 0 0 1 0 0 0 0
68	134384 9 0 0 0 0 1 0 0 0 0
70	134393 364 162884 511381 3.0340001132 9.0950001132 14 79 79 1106 87374
74	134757 364 162884 511381 3.0340001132 9.0950001132 14 72 72 1008 72576
78	135121 9 0 0 0 0 1 0 0 0 0
79	135130 9 0 0 0 0 1 0 0 0 0
87	135139 364 162895 511392 3.0340002264 9.0950002264 14 52 52 728 37856
88	135503 355 162895 511392 3.0340002264 9.0950002264 14 1 14 105 1015
91	135858 584 2166 511395 0.037 9.0950002264 26 44 44 1144 50336
92	136442 220 2161 509971 0.037 9.075 12 45 45 540 24300
93	136662 220 2161 509971 0.037 9.075 12 44 44 528 23232
94	136882 584 2166 511395 0.037 9.0950002264 26 45 45 1170 52650
95	137466 1070 2169 511425 0.037 9.096 52 45 47 2392 110084
96	138536 648953 382 563187 0.002 9.999 36667 0 0 0 0
97	787489 735 2155 511419 0.037 9.096 41 0 47 570 23664
98	788224 179827 1383 563044 0.023 9.997 10104 0 0 0 0
99	968051 950 1807 511419 0.031 9.096 53 0 18 415 5123
100	969001 215170 3357 563044 0.056 9.997 9917 1 9917 49178403 325151207835
101	1184171 876 1383 507443 0.023 9.038 47 1 47 1128 35720
106	1185047 414071 1383 563187 0.023 9.999 19901 512 521 10189915 5217550643
108	1599118 186529 3562 563187 0.058 9.999 9917 2 6 56513 324201
109	1785647 396 162878 507562 3.034 9.04 20 14 14 280 3920
111	1786043 443367 1383 563187 0.023 9.999 19928 1 19928 198572556 2638168788164
112	2229410 414617 1383 563187 0.023 9.999 19928 192 689 6610420 2203545316
113	2644027 374761 1383 563187 0.023 9.999 19928 0 0 0 0
115	3018788 602 1651 511267 0.028 9.093 33 2 8 120 618
120	3019390 10 0 0 0 0 1 0 0 0 0
121	3019400 10 0 0 0 0 1 0 0 0 0
123	3019410 378 162893 511390 3.0340002264 9.0950002264 14 79 79 1106 87374
127	3019788 378 162893 511390 3.0340002264 9.0950002264 14 72 72 1008 72576
128	3020166 421 139 26093 0 0.4570018716 18 36 1632 2824 2785120
130	3020587 438 139 26093 0 0.4570018716 18 0 8.8e-08 3.088e-07 1.946112e-14
131	3021025 280 0 258 0 0.0000007124 13 0 2 10 14
132	3021305 828 0 26095 0 0.4570019156 37 0 1 18 18
133	3022133 423 141 26094 0 0.4570018716 18 43 1639 2950 2825538
134	3022556 442 146 23428 0.0000001228 0.4070019656 18 43 1639 2950 2825538
137	3022998 423 141 26094 0 0.4570018716 18 36 1632 2824 2785120
138	3023421 442 146 23428 0.0000001228 0.4070019656 18 36 1632 2824 2785120
141	3023863 2240 3466 15312 0.0570000972 0.2570018716 90 2 2 180 360
144	3026103 278 162827 511340 3.034 9.095 14 52 52 728 37856
150	3026381 278 162823 511336 3.034 9.095 14 45 45 630 28350
151	3026659 278 162823 511336 3.034 9.095 14 44 44 616 27104
154	3026937 308695 3769 563128 0.062 9.998 16609 0 0 0 0
155	3335632 392 162396 511331 3.028 9.095 20 4 47 670 29106
156	3336024 1417 5308 511331 0.085 9.095 75 0 0 0 0
157	3337441 354 162396 511331 3.028 9.095 18 5 26 352 8156
169	3337795 367 5308 510885 0.085 9.088 19 1 19 190 2470
170	3338162 393 5308 510885 0.085 9.088 19 40 571 7603 3418689
171	3338555 357 5308 510885 0.085 9.088 19 0 0 0 0
173	3338912 392 162234 511189 3.025 9.092 20 4 15 214 2746
175	3339304 278 162829 511342 3.034 9.095 14 72 72 1008 72576
177	3339582 264 162829 511342 3.034 9.095 14 0 0 0 0
178	3339846 10 0 0 0 0 1 0 0 0 0
179	3339856 638 0 511380 0 9.0950000632 29 0 1 14 14
180	3340494 278 162830 511343 3.034 9.095 14 79 79 1106 87374
184	3340772 278 162830 511343 3.034 9.095 14 72 72 1008 72576
186	3341050 422 140 23425 0 0.4070018716 18 36 1632 2824 2785120
188	3341472 439 140 23425 0 0.4070018716 18 0 8.8e-08 3.088e-07 1.946112e-14
189	3341911 280 0 257 0 0.0000007124 13 0 2 10 14
190	3342191 830 0 23427 0 0.4070019156 37 0 1 18 18
191	3343021 424 142 23426 0 0.4070018716 18 43 1639 2950 2825538
192	3343445 441 145 26096 0.0000001228 0.4570019656 18 43 1639 2950 2825538
195	3343886 424 142 23426 0 0.4070018716 18 36 1632 2824 2785120
196	3344310 441 145 26096 0.0000001228 0.4570019656 18 36 1632 2824 2785120
199	3344751 2230 652 12277 0.0070000972 0.2070018716 90 2 2 180 360
205	3346981 82 5141 510508 0.08215464002 9.08215464002 3 44 44 132 5808
206	3347063 505 2447 511705 0.042 9.1 26 45 45 1170 52650
207	3347568 505 2447 511705 0.042 9.1 26 44 44 1144 50336
208	3348073 82 5141 510508 0.08215464002 9.08215464002 3 45 45 135 6075
209	3348155 140 5144 511235 0.08215464002 9.093 6 45 47 276 12702
210	3348295 1738 2338 511642 0.039 9.098 93 0 0 0 0
211	3350033 560 2443 511701 0.042 9.1 29 0 47 1222 57434
212	3350593 1514 2443 511701 0.042 9.1 81 0 0 0 0
228	3352107 486 2337 511544 0.039 9.097 26 4 8 136 776
231	3352593 10 0 0 0 0 1 1 1 1 1
237	3352603 85 4030 509357 0.066956260251 9.066956260251 3 44 44 132 5808
238	3352688 58 6045 511507 0.097 9.097 3 45 45 135 6075
239	3352746 58 6045 511507 0.097 9.097 3 44 44 132 5808
240	3352804 85 4030 509357 0.066956260251 9.066956260251 3 45 45 135 6075
241	3352889 143 4033 509665 0.066956260251 9.071 6 45 47 276 12702
242	3353032 1181 1345 511323 0.022 9.094 69 0 0 0 0
243	3354213 113 4326 511503 0.071 9.097 6 0 47 141 6627
244	3354326 620 1345 511503 0.022 9.097 36 0 0 0 0
249	3354946 472 1435 3668 0.024 0.06 27 1 27 378 6930
262	3355418 58 5912 511322 0.094 9.094 3 10 10 30 300
263	3355476 10 0 0 0 0 1 1 1 1 1
269	3355486 85 3673 508922 0.060918334927 9.060918334927 3 44 44 132 5808
272	3355571 85 3673 508922 0.060918334927 9.060918334927 3 45 45 135 6075
273	3355656 198 3676 509610 0.060918334927 9.07 9 19 45 282 9858
274	3355854 434 3889 510013 0.063 9.075 24 0 0 0 0
275	3356288 107 3931 509606 0.065 9.07 6 0 0 0 0
276	3356395 217 3701 509634 0.061 9.07 12 0 0 0 0
295	3356612 10 0 0 0 0 1 1 1 1 1
301	3356622 85 1520 506422 0.025952952534 9.025952952534 3 44 44 132 5808
304	3356707 85 1520 506422 0.025952952534 9.025952952534 3 45 45 135 6075
305	3356792 85 1523 506425 0.025952952534 9.025952952534 3 45 45 135 6075
308	3356877 26624 1529 562950 0.026 9.996 1402 0 0 0 0
315	3383501 29723 1529 562950 0.026 9.996 1402 1 1402 983503 919575305
327	3413224 163 0 6534 0 0.105 10 1 2 19 37
333	3413387 82 4690 510027 0.07505697578 9.07505697578 3 44 44 132 5808
336	3413469 82 4690 510027 0.07505697578 9.07505697578 3 45 45 135 6075
337	3413551 82 4693 510030 0.07505697578 9.07505697578 3 45 45 135 6075
340	3413633 26332 4704 562952 0.076 9.996 1386 0 0 0 0
347	3439965 29383 4704 562952 0.076 9.996 1386 1 1386 961191 888460881
359	3469348 163 0 6535 0 0.105 10 1 2 19 37
365	3469511 85 2213 507332 0.037729873816 9.037729873816 3 44 44 132 5808
368	3469596 85 2213 507332 0.037729873816 9.037729873816 3 45 45 135 6075
369	3469681 85 2216 507335 0.037729873816 9.037729873816 3 45 45 135 6075
370	3469766 53021 4776 563038 0.077 9.997 2791 0 0 0 0
372	3522787 79556 2228 563062 0.038 9.998 4188 0 0 0 0
378	3602343 29539 163136 563062 3.038 9.998 1393 1 1393 970921 901985609
379	3631882 68 2228 3085 0.038 0.053 4 1 4 10 30
391	3631950 163 0 6536 0 0.105 10 1 2 19 37
397	3632113 85 4271 509598 0.069116189484 9.069116189484 3 44 44 132 5808
400	3632198 85 4271 509598 0.069116189484 9.069116189484 3 45 45 135 6075
401	3632283 85 4274 509601 0.069116189484 9.069116189484 3 45 45 135 6075
404	3632368 36262 4287 563196 0.07 10 1987 0 0 0 0
410	3668630 41030 4287 563196 0.07 10 1983 1 1983 1967136 2601209504
411	3709660 74 162529 507121 3.03 9.035 4 1 4 10 30
423	3709734 10 0 0 0 0 1 1 1 1 1
429	3709744 85 3569 508780 0.058808041334 9.058808041334 3 44 44 132 5808
432	3709829 85 3569 508780 0.058808041334 9.058808041334 3 45 45 135 6075
433	3709914 85 3572 508783 0.058808041334 9.058808041334 3 45 45 135 6075
436	3709999 37409 3582 563159 0.059 9.999 1989 0 0 0 0
442	3747408 42181 3582 563159 0.059 9.999 1985 1 1985 1971105 2609085985
443	3789589 76 162461 507040 3.029 9.034 4 1 4 10 30
455	3789665 10 0 0 0 0 1 1 1 1 1
461	3789675 82 3127 508436 0.05394782705 9.05394782705 3 44 44 132 5808
464	3789757 82 3127 508436 0.05394782705 9.05394782705 3 45 45 135 6075
465	3789839 82 3130 508439 0.05394782705 9.05394782705 3 45 45 135 6075
468	3789921 37426 3161 563161 0.054 9.999 1990 0 0 0 0
474	3827347 42201 3161 563161 0.054 9.999 1986 1 1986 1973091 2613030181
475	3869548 76 162463 507042 3.029 9.034 4 1 4 10 30
487	3869624 10 0 0 0 0 1 1 1 1 1
493	3869634 85 4583 509960 0.074373740533 9.074373740533 3 44 44 132 5808
496	3869719 85 4583 509960 0.074373740533 9.074373740533 3 45 45 135 6075
497	3869804 85 4586 509963 0.074373740533 9.074373740533 3 45 45 135 6075
500	3869889 36246 4656 563200 0.075 10 1986 0 0 0 0
506	3906135 41011 4656 563200 0.075 10 1982 1 1982 1965153 2597277215
507	3947146 74 162533 507125 3.03 9.035 4 1 4 10 30
519	3947220 10 0 0 0 0 1 1 1 1 1
525	3947230 85 1351 506236 0.022555459228 9.022555459228 3 44 44 132 5808
528	3947315 85 1351 506236 0.022555459228 9.022555459228 3 45 45 135 6075
529	3947400 253 1354 506974 0.022555459228 9.033 12 0 47 276 12702
530	3947653 370266 1515 563223 0.025 10 19864 0 0 0 0
531	4317919 165 1598 506970 0.027 9.033 9 0 0 0 0
532	4318084 370049 1367 563223 0.023 10 19852 0 0 0 0
551	4688133 10 0 0 0 0 1 1 1 1 1
557	4688143 85 3119 508429 0.053440309435 9.053440309435 3 44 44 132 5808
560	4688228 85 3119 508429 0.053440309435 9.053440309435 3 45 45 135 6075
561	4688313 85 3122 508432 0.053440309435 9.053440309435 3 45 45 135 6075
564	4688398 37426 3165 563165 0.054 9.999 1990 0 0 0 0
570	4725824 42201 3165 563165 0.054 9.999 1986 1 1986 1973091 2613030181
571	4768025 76 162467 507046 3.029 9.034 4 1 4 10 30
583	4768101 10 0 0 0 0 1 1 1 1 1
589	4768111 85 1228 506044 0.019660798032 9.019660798032 3 44 44 132 5808
592	4768196 85 1228 506044 0.019660798032 9.019660798032 3 45 45 135 6075
593	4768281 199 1231 506734 0.019660798032 9.03 9 7 45 237 9009
594	4768480 79646 4842 563180 0.078 9.999 4192 0 0 0 0
595	4848126 112 162150 506730 3.024 9.03 6 0 0 0 0
596	4848238 79622 1246 563180 0.02 9.999 4192 0 0 0 0
603	4927860 132 1246 3257 0.02 0.055 8 1 8 36 204
615	4927992 163 0 6537 0 0.105 10 1 2 19 37
621	4928155 85 2738 507997 0.046595396413 9.046595396413 3 44 44 132 5808
624	4928240 85 2738 507997 0.046595396413 9.046595396413 3 45 45 135 6075
625	4928325 163 2741 508593 0.046595396413 9.056 7 4 45 233 10157
626	4928488 302 163952 508983 3.049 9.061 16 0 0 0 0
627	4928790 76 164064 508589 3.051 9.056 4 0 0 0 0
628	4928866 186 2757 508605 0.047 9.056 10 0 0 0 0
635	4929052 34 2757 3056 0.047 0.052 2 1 2 3 5
647	4929086 163 0 6538 0 0.105 10 1 2 19 37
653	4929249 85 3291 508568 0.055913616046 9.055913616046 3 44 44 132 5808
656	4929334 85 3291 508568 0.055913616046 9.055913616046 3 45 45 135 6075
657	4929419 123 3294 508878 0.055913616046 9.06 5 45 47 229 10493
658	4929542 152 164518 509272 3.058 9.065 8 0 0 0 0
659	4929694 36 164627 508874 3.06 9.06 2 0 0 0 0
660	4929730 91 3312 508888 0.056 9.06 5 0 0 0 0
667	4929821 17 3312 3312 0.056 0.056 1 1 1 1 1
679	4929838 163 0 6539 0 0.105 10 1 2 19 37
685	4930001 85 5188 510563 0.083428886256 9.083428886256 3 44 44 132 5808
688	4930086 85 5188 510563 0.083428886256 9.083428886256 3 45 45 135 6075
689	4930171 125 5191 510873 0.083428886256 9.088 5 45 47 229 10493
690	4930296 169 5406 511266 0.086 9.093 9 0 0 0 0
691	4930465 38 166598 510869 3.088 9.088 2 0 0 0 0
692	4930503 93 5232 510882 0.084 9.088 5 0 0 0 0
711	4930596 163 0 6540 0 0.105 10 1 2 19 37
717	4930759 85 1922 506949 0.032752273618 9.032752273618 3 44 44 132 5808
720	4930844 85 1922 506949 0.032752273618 9.032752273618 3 45 45 135 6075
721	4930929 125 1925 507292 0.032752273618 9.037 5 45 47 229 10493
722	4931054 152 162952 507700 3.035 9.042 8 0 0 0 0
723	4931206 38 163080 507288 3.037 9.037 2 0 0 0 0
724	4931244 161 1948 507300 0.033 9.037 9 0 0 0 0
731	4931405 85 1948 3097 0.033 0.053 5 1 5 15 55
743	4931490 163 0 6541 0 0.105 10 1 2 19 37
749	4931653 85 4185 509536 0.068834142487 9.068834142487 3 44 44 132 5808
752	4931738 85 4185 509536 0.068834142487 9.068834142487 3 45 45 135 6075
753	4931823 125 4188 509827 0.068834142487 9.073 5 45 47 229 10493
754	4931948 475 1316 510222 0.021 9.078 27 0 0 0 0
755	4932423 38 165556 509823 3.073 9.073 2 0 0 0 0
756	4932461 399 1316 509834 0.021 9.073 23 0 0 0 0
775	4932860 163 0 6542 0 0.105 10 1 2 19 37
781	4933023 85 5411 510794 0.086610205313 9.086610205313 3 44 44 132 5808
784	4933108 85 5411 510794 0.086610205313 9.086610205313 3 45 45 135 6075
785	4933193 125 5414 511064 0.086610205313 9.091 5 45 47 229 10493
786	4933318 264 162431 511457 3.028 9.096 14 0 0 0 0
787	4933582 38 166789 511060 3.091 9.091 2 0 0 0 0
788	4933620 190 162431 511070 3.028 9.091 10 0 0 0 0
807	4933810 163 0 6543 0 0.105 10 1 2 19 37
813	4933973 85 1663 506637 0.028524626123 9.028524626123 3 44 44 132 5808
816	4934058 85 1663 506637 0.028524626123 9.028524626123 3 45 45 135 6075
817	4934143 253 1666 507489 0.028524626123 9.039 12 0 47 276 12702
818	4934396 707 1843 507894 0.031 9.044 39 0 0 0 0
819	4935103 165 1952 507485 0.033 9.039 9 0 0 0 0
820	4935268 487 1688 507494 0.029 9.039 27 0 0 0 0
839	4935755 10 0 0 0 0 1 1 1 1 1
1319	4935765 94 1225 506041 0.019660798032 9.019660798032 3 7504 7504 22512 168930048
1320	4935859 94 1225 506041 0.019660798032 9.019660798032 3 7504 7504 22512 168930048
1322	4935953 85 1225 506041 0.019660798032 9.019660798032 3 0 0 0 0
1333	4936038 85 1225 506041 0.019660798032 9.019660798032 3 0 0 0 0
1343	4936123 94 1348 506233 0.022555459228 9.022555459228 3 7504 7504 22512 168930048
1344	4936217 94 1348 506233 0.022555459228 9.022555459228 3 7504 7504 22512 168930048
1346	4936311 85 1348 506233 0.022555459228 9.022555459228 3 0 0 0 0
1357	4936396 85 1348 506233 0.022555459228 9.022555459228 3 0 0 0 0
1367	4936481 94 1517 506419 0.025952952534 9.025952952534 3 7504 7504 22512 168930048
1368	4936575 94 1517 506419 0.025952952534 9.025952952534 3 7504 7504 22512 168930048
1370	4936669 85 1517 506419 0.025952952534 9.025952952534 3 0 0 0 0
1381	4936754 85 1517 506419 0.025952952534 9.025952952534 3 0 0 0 0
1391	4936839 94 1660 506634 0.028524626123 9.028524626123 3 7504 7504 22512 168930048
1392	4936933 94 1660 506634 0.028524626123 9.028524626123 3 7504 7504 22512 168930048
1394	4937027 85 1660 506634 0.028524626123 9.028524626123 3 0 0 0 0
1405	4937112 85 1660 506634 0.028524626123 9.028524626123 3 0 0 0 0
1415	4937197 94 1919 506946 0.032752273618 9.032752273618 3 7504 7504 22512 168930048
1416	4937291 94 1919 506946 0.032752273618 9.032752273618 3 7504 7504 22512 168930048
1418	4937385 85 1919 506946 0.032752273618 9.032752273618 3 0 0 0 0
1429	4937470 85 1919 506946 0.032752273618 9.032752273618 3 0 0 0 0
1439	4937555 94 2210 507329 0.037729873816 9.037729873816 3 7504 7504 22512 168930048
1440	4937649 94 2210 507329 0.037729873816 9.037729873816 3 7504 7504 22512 168930048
1442	4937743 85 2210 507329 0.037729873816 9.037729873816 3 0 0 0 0
1453	4937828 85 2210 507329 0.037729873816 9.037729873816 3 0 0 0 0
1463	4937913 94 2735 507994 0.046595396413 9.046595396413 3 7504 7504 22512 168930048
1464	4938007 94 2735 507994 0.046595396413 9.046595396413 3 7504 7504 22512 168930048
1466	4938101 85 2735 507994 0.046595396413 9.046595396413 3 0 0 0 0
1477	4938186 85 2735 507994 0.046595396413 9.046595396413 3 0 0 0 0
1487	4938271 94 3116 508426 0.053440309435 9.053440309435 3 7504 7504 22512 168930048
1488	4938365 94 3116 508426 0.053440309435 9.053440309435 3 7504 7504 22512 168930048
1490	4938459 85 3116 508426 0.053440309435 9.053440309435 3 0 0 0 0
1501	4938544 85 3116 508426 0.053440309435 9.053440309435 3 0 0 0 0
1511	4938629 91 3124 508433 0.05394782705 9.05394782705 3 7504 7504 22512 168930048
1512	4938720 91 3124 508433 0.05394782705 9.05394782705 3 7504 7504 22512 168930048
1514	4938811 82 3124 508433 0.05394782705 9.05394782705 3 0 0 0 0
1525	4938893 82 3124 508433 0.05394782705 9.05394782705 3 0 0 0 0
1535	4938975 94 3288 508565 0.055913616046 9.055913616046 3 7504 7504 22512 168930048
1536	4939069 94 3288 508565 0.055913616046 9.055913616046 3 7504 7504 22512 168930048
1538	4939163 85 3288 508565 0.055913616046 9.055913616046 3 0 0 0 0
1549	4939248 85 3288 508565 0.055913616046 9.055913616046 3 0 0 0 0
1559	4939333 94 3566 508777 0.058808041334 9.058808041334 3 7504 7504 22512 168930048
1560	4939427 94 3566 508777 0.058808041334 9.058808041334 3 7504 7504 22512 168930048
1562	4939521 85 3566 508777 0.058808041334 9.058808041334 3 0 0 0 0
1573	4939606 85 3566 508777 0.058808041334 9.058808041334 3 0 0 0 0
1583	4939691 94 3670 508919 0.060918334927 9.060918334927 3 7504 7504 22512 168930048
1584	4939785 94 3670 508919 0.060918334927 9.060918334927 3 7504 7504 22512 168930048
1586	4939879 85 3670 508919 0.060918334927 9.060918334927 3 0 0 0 0
1597	4939964 85 3670 508919 0.060918334927 9.060918334927 3 0 0 0 0
1607	4940049 94 4027 509354 0.066956260251 9.066956260251 3 7504 7504 22512 168930048
1608	4940143 94 4027 509354 0.066956260251 9.066956260251 3 7504 7504 22512 168930048
1610	4940237 85 4027 509354 0.066956260251 9.066956260251 3 0 0 0 0
1621	4940322 85 4027 509354 0.066956260251 9.066956260251 3 0 0 0 0
1631	4940407 94 4182 509533 0.068834142487 9.068834142487 3 7504 7504 22512 168930048
1632	4940501 94 4182 509533 0.068834142487 9.068834142487 3 7504 7504 22512 168930048
1634	4940595 85 4182 509533 0.068834142487 9.068834142487 3 0 0 0 0
1645	4940680 85 4182 509533 0.068834142487 9.068834142487 3 0 0 0 0
1655	4940765 94 4268 509595 0.069116189484 9.069116189484 3 7504 7504 22512 168930048
1656	4940859 94 4268 509595 0.069116189484 9.069116189484 3 7504 7504 22512 168930048
1658	4940953 85 4268 509595 0.069116189484 9.069116189484 3 0 0 0 0
1669	4941038 85 4268 509595 0.069116189484 9.069116189484 3 0 0 0 0
1679	4941123 94 4580 509957 0.074373740533 9.074373740533 3 7504 7504 22512 168930048
1680	4941217 94 4580 509957 0.074373740533 9.074373740533 3 7504 7504 22512 168930048
1682	4941311 85 4580 509957 0.074373740533 9.074373740533 3 0 0 0 0
1693	4941396 85 4580 509957 0.074373740533 9.074373740533 3 0 0 0 0
1703	4941481 91 4687 510024 0.07505697578 9.07505697578 3 7504 7504 22512 168930048
1704	4941572 91 4687 510024 0.07505697578 9.07505697578 3 7504 7504 22512 168930048
1706	4941663 82 4687 510024 0.07505697578 9.07505697578 3 0 0 0 0
1717	4941745 82 4687 510024 0.07505697578 9.07505697578 3 0 0 0 0
1727	4941827 91 5138 510505 0.08215464002 9.08215464002 3 7504 7504 22512 168930048
1728	4941918 91 5138 510505 0.08215464002 9.08215464002 3 7504 7504 22512 168930048
1730	4942009 82 5138 510505 0.08215464002 9.08215464002 3 0 0 0 0
1741	4942091 82 5138 510505 0.08215464002 9.08215464002 3 0 0 0 0
1751	4942173 94 5185 510560 0.083428886256 9.083428886256 3 7504 7504 22512 168930048
1752	4942267 94 5185 510560 0.083428886256 9.083428886256 3 7504 7504 22512 168930048
1754	4942361 85 5185 510560 0.083428886256 9.083428886256 3 0 0 0 0
1765	4942446 85 5185 510560 0.083428886256 9.083428886256 3 0 0 0 0
1775	4942531 94 5408 510791 0.086610205313 9.086610205313 3 7504 7504 22512 168930048
1776	4942625 94 5408 510791 0.086610205313 9.086610205313 3 7504 7504 22512 168930048
1778	4942719 85 5408 510791 0.086610205313 9.086610205313 3 0 0 0 0
1789	4942804 85 5408 510791 0.086610205313 9.086610205313 3 0 0 0 0
