file 7458065 1589563559                                         
version 2
run CAIN-39-20200515-14:20:36-16713
attr configname CAIN
attr datetime 20200515-14:20:36
attr dist 200
attr experiment CAIN
attr inifile omnetpp.ini
attr iterationvars "$numUe=25, $pwr=-50, $dist=200, $mob=\"./movements/RWP-0.5.movements\""
attr iterationvars2 "$numUe=25, $pwr=-50, $dist=200, $mob=\"./movements/RWP-0.5.movements\", $repetition=4"
attr measurement "$numUe=25, $pwr=-50, $dist=200, $mob=\"./movements/RWP-0.5.movements\""
attr mob "\"./movements/RWP-0.5.movements\""
attr network lte.simulations.networks.CAIN
attr numUe 25
attr processid 16713
attr pwr -50
attr repetition 4
attr replication #4
attr resultdir results
attr runnumber 39
attr seedset 4
param **.**.amcMode "\"AUTO\""
param **.amcMode "\"D2D\""
param **.cainNetwork true
param **.channelControl.alpha 1.0
param **.channelControl.carrierFrequency 2100e+6Hz
param **.channelControl.pMax 10W
param **.d2dCqi 7
param **.deployer.numRbDl 50
param **.deployer.numRbUl 50
param **.distThresh ${dist=200}
param **.fbDelay 1
param **.feedbackComputation "xmldoc(\"config_channel.xml\")"
param **.mobility.constraintAreaMaxX 1000m
param **.mobility.constraintAreaMaxY 1000m
param **.mobility.constraintAreaMaxZ 0m
param **.mobility.constraintAreaMinX 0m
param **.mobility.constraintAreaMinY 0m
param **.mobility.constraintAreaMinZ 0m
param **.nic.phy.channelModel "xmldoc(\"config_channel.xml\")"
param **.numBands 50
param **.pwrThresh "${pwr= -50}"
param **.qtdThresh 3
param **.rbAllocationType "\"localized\""
param **.routingRecorder.enabled false
param **.tcpApp[*].tClose -1s
param **.ueD2DTx[*].mobility.changeAngleBy "normal(0deg, 30deg)"
param **.ueD2DTx[*].mobility.changeInterval "normal(5s, 0.1s)"
param **.ueD2DTx[*].mobility.nodeId -1
param **.ueD2DTx[*].mobility.speed "normal(2mps, 0.01mps)"
param **.ueD2DTx[*].mobility.traceFile "${mob=\"./movements/RWP-0.0.movements\",\"./movements/RWP-0.5.movements\",\"./movements/RPGM-0.0.movements\",\"./movements/RPGM-0.5.movements\",\"./movements/RWPRPGM-0.0.movements\",\"./movements/RWPRPGM-0.5.movements\"}"
param **.ueD2DTx[*].mobilityType "\"BonnMotionMobility\""
param **.usePreconfiguredTxParams false
param *.eNodeB*.numX2Apps 1
param *.eNodeB*.x2App[*].server.localPort "5000 + ancestorIndex(1)"
param *.eNodeB.d2dCapable false
param *.eNodeB.mobility.initFromDisplayString false
param *.eNodeB.mobility.initialX 300m
param *.eNodeB.mobility.initialY 300m
param *.eNodeB.nic.phy.enableD2DCqiReporting true
param *.eNodeB.txPower 19952.62315mw
param *.eNodeB.x2App[0].client.connectAddress "\"eNodeB1%x2ppp0\""
param *.eNodeB1.d2dCapable true
param *.eNodeB1.mobility.initFromDisplayString false
param *.eNodeB1.mobility.initialX 700m
param *.eNodeB1.mobility.initialY 300m
param *.eNodeB1.nic.phy.enableD2DCqiReporting true
param *.eNodeB1.txPower 19952.62315mw
param *.eNodeB1.x2App[0].client.connectAddress "\"eNodeB%x2ppp0\""
param *.extCell[*].bandAllocationType "\"FULL_ALLOC\""
param *.extCell[*].bandUtilization 0.5
param *.extCell[*].txDirection "\"ANISOTROPIC\""
param *.extCell[*].txPower 20
param *.extCell[0].position_x 100m
param *.extCell[0].position_y 600m
param *.extCell[0].txAngle 315
param *.extCell[1].position_x 600m
param *.extCell[1].position_y 600m
param *.extCell[1].txAngle 225
param *.numExtCells 2
param *.numUeCell 0
param *.numUeD2DRx 1
param *.numUeD2DTx 1
param *.ue*.macCellId 1
param *.ue*.masterId 1
param *.ue*.mobility.initFromDisplayString false
param *.ue*[0].macCellId 1
param *.ue*[0].masterId 1
param *.ue*[0].mobility.initFromDisplayString false
param *.ueD2D*.numTcpApps 1
param *.ueD2D*[*].d2dCapable true
param *.ueD2D*[0].d2dCapable false
param *.ueD2D*[0].numTcpApps 1
param *.ueD2DRx[0].mobility.initialX 310m
param *.ueD2DRx[0].mobility.initialY 350m
param *.ueD2DRx[0].tcpApp[*].localPort 1000
param *.ueD2DRx[0].tcpApp[*].typename "\"TCPSinkApp\""
param *.ueD2DTx*.nic.d2dPeerAddresses "\"ueD2DTx[1]\""
param *.ueD2DTx*.tcpApp[*].connectAddress "\"ueD2DTx[0]\""
param *.ueD2DTx*.tcpApp[*].localAddress "\"ueD2DTx\""
param *.ueD2DTx*.tcpApp[*].localPort 1000
param *.ueD2DTx*.tcpApp[*].sendBytes 1GiB
param *.ueD2DTx*.tcpApp[*].typename "\"TCPSessionApp\""
param *.ueD2DTx*.tcpApp[0].active true
param *.ueD2DTx*.tcpApp[0].connectPort 1000
param *.ueD2DTx*.tcpApp[0].tOpen uniform(0.010s,0.1s)
param *.ueD2DTx*.tcpApp[0].tSend uniform(0.15s,0.5s)
param *.ueD2DTx[0].mobility.initialX 290m
param *.ueD2DTx[0].mobility.initialY 350m
param *.ueD2DTx[0].tcpApp[*].localPort 1000
param *.ueD2DTx[0].tcpApp[*].sendBytes 1GiB
param *.ueD2DTx[0].tcpApp[*].typename "\"TCPSessionApp\""
param *.ueD2DTx[0].tcpApp[0].active true
param *.ueD2DTx[0].tcpApp[0].connectAddress "\"ueD2DRx[0]\""
param *.ueD2DTx[0].tcpApp[0].connectPort 1000
param *.ueD2DTx[0].tcpApp[0].localAddress "\"ueD2DTx[0]\""
param *.ueD2DTx[0].tcpApp[0].tOpen uniform(0.010s,0.1s)
param *.ueD2DTx[0].tcpApp[0].tSend uniform(0.15s,0.5s)

vector 8  CAIN.server.ppp[0].queue  queueLength:vector  ETV
attr interpolationmode  sample-hold
attr title  "queue length, vector"
vector 9  CAIN.server.ppp[0].ppp  txState:vector  ETV
attr interpolationmode  sample-hold
attr title  "tx state, vector"
vector 24  CAIN.router.ppp[0].queue  queueLength:vector  ETV
attr interpolationmode  sample-hold
attr title  "queue length, vector"
vector 25  CAIN.router.ppp[0].ppp  txState:vector  ETV
attr interpolationmode  sample-hold
attr title  "tx state, vector"
vector 35  CAIN.router.ppp[1].queue  queueLength:vector  ETV
attr interpolationmode  sample-hold
attr title  "queue length, vector"
vector 36  CAIN.router.ppp[1].ppp  txState:vector  ETV
attr interpolationmode  sample-hold
attr title  "tx state, vector"
vector 56  CAIN.pgw.ppp[0].queue  queueLength:vector  ETV
attr interpolationmode  sample-hold
attr title  "queue length, vector"
vector 57  CAIN.pgw.ppp[0].ppp  txState:vector  ETV
attr interpolationmode  sample-hold
attr title  "tx state, vector"
vector 67  CAIN.pgw.ppp[1].queue  queueLength:vector  ETV
attr interpolationmode  sample-hold
attr title  "queue length, vector"
vector 68  CAIN.pgw.ppp[1].ppp  txState:vector  ETV
attr interpolationmode  sample-hold
attr title  "tx state, vector"
vector 78  CAIN.pgw.pppInterface.queue  queueLength:vector  ETV
attr interpolationmode  sample-hold
attr title  "queue length, vector"
vector 79  CAIN.pgw.pppInterface.ppp  txState:vector  ETV
attr interpolationmode  sample-hold
attr title  "tx state, vector"
vector 120  CAIN.eNodeB.pppIf.queue  queueLength:vector  ETV
attr interpolationmode  sample-hold
attr title  "queue length, vector"
vector 121  CAIN.eNodeB.pppIf.ppp  txState:vector  ETV
attr interpolationmode  sample-hold
attr title  "tx state, vector"
vector 131  CAIN.eNodeB.x2ppp[0].queue  queueLength:vector  ETV
attr interpolationmode  sample-hold
attr title  "queue length, vector"
vector 132  CAIN.eNodeB.x2ppp[0].ppp  txState:vector  ETV
attr interpolationmode  sample-hold
attr title  "tx state, vector"
vector 178  CAIN.eNodeB1.pppIf.queue  queueLength:vector  ETV
attr interpolationmode  sample-hold
attr title  "queue length, vector"
vector 179  CAIN.eNodeB1.pppIf.ppp  txState:vector  ETV
attr interpolationmode  sample-hold
attr title  "tx state, vector"
vector 189  CAIN.eNodeB1.x2ppp[0].queue  queueLength:vector  ETV
attr interpolationmode  sample-hold
attr title  "queue length, vector"
vector 190  CAIN.eNodeB1.x2ppp[0].ppp  txState:vector  ETV
attr interpolationmode  sample-hold
attr title  "tx state, vector"
vector 231  CAIN.ueD2DTx[0].nic.phy  servingCell:vector  ETV
attr source  servingCell
attr title  "ID of the serving eNodeB for the UE, vector"
attr unit  ""
vector 263  CAIN.ueD2DTx[1].nic.phy  servingCell:vector  ETV
attr source  servingCell
attr title  "ID of the serving eNodeB for the UE, vector"
attr unit  ""
vector 295  CAIN.ueD2DTx[2].nic.phy  servingCell:vector  ETV
attr source  servingCell
attr title  "ID of the serving eNodeB for the UE, vector"
attr unit  ""
vector 327  CAIN.ueD2DTx[3].nic.phy  servingCell:vector  ETV
attr source  servingCell
attr title  "ID of the serving eNodeB for the UE, vector"
attr unit  ""
vector 359  CAIN.ueD2DTx[4].nic.phy  servingCell:vector  ETV
attr source  servingCell
attr title  "ID of the serving eNodeB for the UE, vector"
attr unit  ""
vector 391  CAIN.ueD2DTx[5].nic.phy  servingCell:vector  ETV
attr source  servingCell
attr title  "ID of the serving eNodeB for the UE, vector"
attr unit  ""
vector 423  CAIN.ueD2DTx[6].nic.phy  servingCell:vector  ETV
attr source  servingCell
attr title  "ID of the serving eNodeB for the UE, vector"
attr unit  ""
vector 455  CAIN.ueD2DTx[7].nic.phy  servingCell:vector  ETV
attr source  servingCell
attr title  "ID of the serving eNodeB for the UE, vector"
attr unit  ""
vector 487  CAIN.ueD2DTx[8].nic.phy  servingCell:vector  ETV
attr source  servingCell
attr title  "ID of the serving eNodeB for the UE, vector"
attr unit  ""
vector 519  CAIN.ueD2DTx[9].nic.phy  servingCell:vector  ETV
attr source  servingCell
attr title  "ID of the serving eNodeB for the UE, vector"
attr unit  ""
vector 551  CAIN.ueD2DTx[10].nic.phy  servingCell:vector  ETV
attr source  servingCell
attr title  "ID of the serving eNodeB for the UE, vector"
attr unit  ""
vector 583  CAIN.ueD2DTx[11].nic.phy  servingCell:vector  ETV
attr source  servingCell
attr title  "ID of the serving eNodeB for the UE, vector"
attr unit  ""
vector 615  CAIN.ueD2DTx[12].nic.phy  servingCell:vector  ETV
attr source  servingCell
attr title  "ID of the serving eNodeB for the UE, vector"
attr unit  ""
vector 647  CAIN.ueD2DTx[13].nic.phy  servingCell:vector  ETV
attr source  servingCell
attr title  "ID of the serving eNodeB for the UE, vector"
attr unit  ""
vector 679  CAIN.ueD2DTx[14].nic.phy  servingCell:vector  ETV
attr source  servingCell
attr title  "ID of the serving eNodeB for the UE, vector"
attr unit  ""
vector 711  CAIN.ueD2DTx[15].nic.phy  servingCell:vector  ETV
attr source  servingCell
attr title  "ID of the serving eNodeB for the UE, vector"
attr unit  ""
vector 743  CAIN.ueD2DTx[16].nic.phy  servingCell:vector  ETV
attr source  servingCell
attr title  "ID of the serving eNodeB for the UE, vector"
attr unit  ""
vector 775  CAIN.ueD2DTx[17].nic.phy  servingCell:vector  ETV
attr source  servingCell
attr title  "ID of the serving eNodeB for the UE, vector"
attr unit  ""
vector 807  CAIN.ueD2DTx[18].nic.phy  servingCell:vector  ETV
attr source  servingCell
attr title  "ID of the serving eNodeB for the UE, vector"
attr unit  ""
vector 839  CAIN.ueD2DTx[19].nic.phy  servingCell:vector  ETV
attr source  servingCell
attr title  "ID of the serving eNodeB for the UE, vector"
attr unit  ""
vector 871  CAIN.ueD2DTx[20].nic.phy  servingCell:vector  ETV
attr source  servingCell
attr title  "ID of the serving eNodeB for the UE, vector"
attr unit  ""
vector 903  CAIN.ueD2DTx[21].nic.phy  servingCell:vector  ETV
attr source  servingCell
attr title  "ID of the serving eNodeB for the UE, vector"
attr unit  ""
vector 935  CAIN.ueD2DTx[22].nic.phy  servingCell:vector  ETV
attr source  servingCell
attr title  "ID of the serving eNodeB for the UE, vector"
attr unit  ""
vector 967  CAIN.ueD2DTx[23].nic.phy  servingCell:vector  ETV
attr source  servingCell
attr title  "ID of the serving eNodeB for the UE, vector"
attr unit  ""
vector 999  CAIN.ueD2DTx[24].nic.phy  servingCell:vector  ETV
attr source  servingCell
attr title  "ID of the serving eNodeB for the UE, vector"
attr unit  ""
vector 1023  CAIN.eNodeB.sctp  "Throughput of Association 3"  ETV
vector 1045  CAIN.eNodeB1.sctp  "Throughput of Association 4"  ETV
vector 1067  CAIN.eNodeB.sctp  "Throughput of Association 1"  ETV
vector 1087  CAIN.eNodeB.sctp  "Fast Recovery State 1:10.0.5.2"  ETV
vector 1116  CAIN.eNodeB1.sctp  "Throughput of Association 2"  ETV
vector 1136  CAIN.eNodeB1.sctp  "Fast Recovery State 2:10.0.5.1"  ETV
vector 128  CAIN.eNodeB.x2ppp[0].queue  rcvdPk:vector(packetBytes)  ETV
attr interpolationmode  none
attr title  "received packets, vector(packetBytes)"
vector 130  CAIN.eNodeB.x2ppp[0].queue  queueingTime:vector  ETV
attr interpolationmode  none
attr title  "queueing time, vector"
vector 186  CAIN.eNodeB1.x2ppp[0].queue  rcvdPk:vector(packetBytes)  ETV
attr interpolationmode  none
attr title  "received packets, vector(packetBytes)"
vector 188  CAIN.eNodeB1.x2ppp[0].queue  queueingTime:vector  ETV
attr interpolationmode  none
attr title  "queueing time, vector"
vector 137  CAIN.eNodeB.x2ppp[0].ppp  rcvdPkFromHL:vector(packetBytes)  ETV
attr interpolationmode  none
attr source  packetReceivedFromUpper
attr title  "packets received from higher layer, vector(packetBytes)"
vector 133  CAIN.eNodeB.x2ppp[0].ppp  txPk:vector(packetBytes)  ETV
attr interpolationmode  none
attr source  packetSentToLower
attr title  "packets transmitted, vector(packetBytes)"
vector 195  CAIN.eNodeB1.x2ppp[0].ppp  rcvdPkFromHL:vector(packetBytes)  ETV
attr interpolationmode  none
attr source  packetReceivedFromUpper
attr title  "packets received from higher layer, vector(packetBytes)"
vector 191  CAIN.eNodeB1.x2ppp[0].ppp  txPk:vector(packetBytes)  ETV
attr interpolationmode  none
attr source  packetSentToLower
attr title  "packets transmitted, vector(packetBytes)"
vector 192  CAIN.eNodeB1.x2ppp[0].ppp  rxPkOk:vector(packetBytes)  ETV
attr interpolationmode  none
attr source  rxPkOk
attr title  "packets received OK, vector(packetBytes)"
vector 196  CAIN.eNodeB1.x2ppp[0].ppp  passedUpPk:vector(packetBytes)  ETV
attr interpolationmode  none
attr source  packetSentToUpper
attr title  "packets passed to higher layer, vector(packetBytes)"
vector 134  CAIN.eNodeB.x2ppp[0].ppp  rxPkOk:vector(packetBytes)  ETV
attr interpolationmode  none
attr source  rxPkOk
attr title  "packets received OK, vector(packetBytes)"
vector 138  CAIN.eNodeB.x2ppp[0].ppp  passedUpPk:vector(packetBytes)  ETV
attr interpolationmode  none
attr source  packetSentToUpper
attr title  "packets passed to higher layer, vector(packetBytes)"
vector 1165  CAIN.eNodeB1.sctp  "Throughput of Association 4"  ETV
vector 1042  CAIN.eNodeB1.sctp  "Peer Rwnd 4"  ETV
vector 1185  CAIN.eNodeB1.sctp  "Fast Recovery State 5:10.0.4.1"  ETV
vector 1212  CAIN.eNodeB1.sctp  "Fast Recovery State 5:10.0.2.2"  ETV
vector 1239  CAIN.eNodeB1.sctp  "Fast Recovery State 5:10.0.5.1"  ETV
vector 1268  CAIN.eNodeB.sctp  "Throughput of Association 3"  ETV
vector 1020  CAIN.eNodeB.sctp  "Peer Rwnd 3"  ETV
vector 1288  CAIN.eNodeB.sctp  "Fast Recovery State 6:10.0.4.2"  ETV
vector 1315  CAIN.eNodeB.sctp  "Fast Recovery State 6:10.0.3.2"  ETV
vector 1342  CAIN.eNodeB.sctp  "Fast Recovery State 6:10.0.5.2"  ETV
vector 1064  CAIN.eNodeB.sctp  "Peer Rwnd 1"  ETV
vector 1369  CAIN.eNodeB.sctp  "Fast Recovery State 1:10.0.4.2"  ETV
vector 1396  CAIN.eNodeB.sctp  "Fast Recovery State 1:10.0.3.2"  ETV
vector 1113  CAIN.eNodeB1.sctp  "Peer Rwnd 2"  ETV
vector 1423  CAIN.eNodeB1.sctp  "Fast Recovery State 2:10.0.4.1"  ETV
vector 1450  CAIN.eNodeB1.sctp  "Fast Recovery State 2:10.0.2.2"  ETV
vector 1195  CAIN.eNodeB1.sctp  "Slow Start Threshold 5:10.0.2.2"  ETV
vector 1196  CAIN.eNodeB1.sctp  "Congestion Window 5:10.0.2.2"  ETV
vector 1197  CAIN.eNodeB1.sctp  "Bandwidth 5:10.0.2.2"  ETV
vector 1200  CAIN.eNodeB1.sctp  "HB Sent 5:10.0.2.2"  ETV
vector 1193  CAIN.eNodeB1.sctp  "RTO 5:10.0.2.2"  ETV
vector 1168  CAIN.eNodeB1.sctp  "Slow Start Threshold 5:10.0.4.1"  ETV
vector 1169  CAIN.eNodeB1.sctp  "Congestion Window 5:10.0.4.1"  ETV
vector 1170  CAIN.eNodeB1.sctp  "Bandwidth 5:10.0.4.1"  ETV
vector 1173  CAIN.eNodeB1.sctp  "HB Sent 5:10.0.4.1"  ETV
vector 1166  CAIN.eNodeB1.sctp  "RTO 5:10.0.4.1"  ETV
vector 1222  CAIN.eNodeB1.sctp  "Slow Start Threshold 5:10.0.5.1"  ETV
vector 1223  CAIN.eNodeB1.sctp  "Congestion Window 5:10.0.5.1"  ETV
vector 1224  CAIN.eNodeB1.sctp  "Bandwidth 5:10.0.5.1"  ETV
vector 1220  CAIN.eNodeB1.sctp  "RTO 5:10.0.5.1"  ETV
vector 1298  CAIN.eNodeB.sctp  "Slow Start Threshold 6:10.0.3.2"  ETV
vector 1299  CAIN.eNodeB.sctp  "Congestion Window 6:10.0.3.2"  ETV
vector 1300  CAIN.eNodeB.sctp  "Bandwidth 6:10.0.3.2"  ETV
vector 1303  CAIN.eNodeB.sctp  "HB Sent 6:10.0.3.2"  ETV
vector 1296  CAIN.eNodeB.sctp  "RTO 6:10.0.3.2"  ETV
vector 1271  CAIN.eNodeB.sctp  "Slow Start Threshold 6:10.0.4.2"  ETV
vector 1272  CAIN.eNodeB.sctp  "Congestion Window 6:10.0.4.2"  ETV
vector 1273  CAIN.eNodeB.sctp  "Bandwidth 6:10.0.4.2"  ETV
vector 1276  CAIN.eNodeB.sctp  "HB Sent 6:10.0.4.2"  ETV
vector 1269  CAIN.eNodeB.sctp  "RTO 6:10.0.4.2"  ETV
vector 1325  CAIN.eNodeB.sctp  "Slow Start Threshold 6:10.0.5.2"  ETV
vector 1326  CAIN.eNodeB.sctp  "Congestion Window 6:10.0.5.2"  ETV
vector 1327  CAIN.eNodeB.sctp  "Bandwidth 6:10.0.5.2"  ETV
vector 1323  CAIN.eNodeB.sctp  "RTO 6:10.0.5.2"  ETV
vector 1076  CAIN.eNodeB.sctp  "HB ACK Sent 1:10.0.5.2"  ETV
vector 1077  CAIN.eNodeB.sctp  "HB Received 1:10.0.5.2"  ETV
vector 1125  CAIN.eNodeB1.sctp  "HB ACK Sent 2:10.0.5.1"  ETV
vector 1126  CAIN.eNodeB1.sctp  "HB Received 2:10.0.5.1"  ETV
vector 1379  CAIN.eNodeB.sctp  "Slow Start Threshold 1:10.0.3.2"  ETV
vector 1380  CAIN.eNodeB.sctp  "Congestion Window 1:10.0.3.2"  ETV
vector 1381  CAIN.eNodeB.sctp  "Bandwidth 1:10.0.3.2"  ETV
vector 1384  CAIN.eNodeB.sctp  "HB Sent 1:10.0.3.2"  ETV
vector 1377  CAIN.eNodeB.sctp  "RTO 1:10.0.3.2"  ETV
vector 1352  CAIN.eNodeB.sctp  "Slow Start Threshold 1:10.0.4.2"  ETV
vector 1353  CAIN.eNodeB.sctp  "Congestion Window 1:10.0.4.2"  ETV
vector 1354  CAIN.eNodeB.sctp  "Bandwidth 1:10.0.4.2"  ETV
vector 1357  CAIN.eNodeB.sctp  "HB Sent 1:10.0.4.2"  ETV
vector 1350  CAIN.eNodeB.sctp  "RTO 1:10.0.4.2"  ETV
vector 1070  CAIN.eNodeB.sctp  "Slow Start Threshold 1:10.0.5.2"  ETV
vector 1071  CAIN.eNodeB.sctp  "Congestion Window 1:10.0.5.2"  ETV
vector 1072  CAIN.eNodeB.sctp  "Bandwidth 1:10.0.5.2"  ETV
vector 1068  CAIN.eNodeB.sctp  "RTO 1:10.0.5.2"  ETV
vector 1433  CAIN.eNodeB1.sctp  "Slow Start Threshold 2:10.0.2.2"  ETV
vector 1434  CAIN.eNodeB1.sctp  "Congestion Window 2:10.0.2.2"  ETV
vector 1435  CAIN.eNodeB1.sctp  "Bandwidth 2:10.0.2.2"  ETV
vector 1438  CAIN.eNodeB1.sctp  "HB Sent 2:10.0.2.2"  ETV
vector 1431  CAIN.eNodeB1.sctp  "RTO 2:10.0.2.2"  ETV
vector 1406  CAIN.eNodeB1.sctp  "Slow Start Threshold 2:10.0.4.1"  ETV
vector 1407  CAIN.eNodeB1.sctp  "Congestion Window 2:10.0.4.1"  ETV
vector 1408  CAIN.eNodeB1.sctp  "Bandwidth 2:10.0.4.1"  ETV
vector 1411  CAIN.eNodeB1.sctp  "HB Sent 2:10.0.4.1"  ETV
vector 1404  CAIN.eNodeB1.sctp  "RTO 2:10.0.4.1"  ETV
vector 1119  CAIN.eNodeB1.sctp  "Slow Start Threshold 2:10.0.5.1"  ETV
vector 1120  CAIN.eNodeB1.sctp  "Congestion Window 2:10.0.5.1"  ETV
vector 1121  CAIN.eNodeB1.sctp  "Bandwidth 2:10.0.5.1"  ETV
vector 1117  CAIN.eNodeB1.sctp  "RTO 2:10.0.5.1"  ETV
vector 1333  CAIN.eNodeB.sctp  "HB ACK Received 6:10.0.5.2"  ETV
vector 1324  CAIN.eNodeB.sctp  "RTT 6:10.0.5.2"  ETV
vector 1230  CAIN.eNodeB1.sctp  "HB ACK Received 5:10.0.5.1"  ETV
vector 1221  CAIN.eNodeB1.sctp  "RTT 5:10.0.5.1"  ETV
vector 1331  CAIN.eNodeB.sctp  "HB ACK Sent 6:10.0.5.2"  ETV
vector 1332  CAIN.eNodeB.sctp  "HB Received 6:10.0.5.2"  ETV
vector 1228  CAIN.eNodeB1.sctp  "HB ACK Sent 5:10.0.5.1"  ETV
vector 1229  CAIN.eNodeB1.sctp  "HB Received 5:10.0.5.1"  ETV
vector 1127  CAIN.eNodeB1.sctp  "HB ACK Received 2:10.0.5.1"  ETV
vector 1118  CAIN.eNodeB1.sctp  "RTT 2:10.0.5.1"  ETV
vector 1078  CAIN.eNodeB.sctp  "HB ACK Received 1:10.0.5.2"  ETV
vector 1069  CAIN.eNodeB.sctp  "RTT 1:10.0.5.2"  ETV
vector 96  CAIN.eNodeB.nic.mac  receivedPacketFromLowerLayer:vector(packetBytes)  ETV
attr interpolationmode  none
attr source  receivedPacketFromLowerLayer
vector 1465  CAIN.eNodeB.sctp  "SendQueue of Association 6"  ETV
vector 1328  CAIN.eNodeB.sctp  "TSN Sent 6:10.0.5.2"  ETV
vector 1335  CAIN.eNodeB.sctp  "Outstanding Bytes 6:10.0.5.2"  ETV
vector 1008  CAIN.eNodeB.sctp  "Outstanding Bytes 3:Total"  ETV
vector 1334  CAIN.eNodeB.sctp  "Queued Sent Bytes 6:10.0.5.2"  ETV
vector 1007  CAIN.eNodeB.sctp  "Queued Sent Bytes 3:Total"  ETV
vector 1123  CAIN.eNodeB1.sctp  "TSN Received 2:10.0.5.1"  ETV
vector 1099  CAIN.eNodeB1.sctp  "Queued Received Bytes 2:Total"  ETV
vector 1095  CAIN.eNodeB1.sctp  "Advertised Receiver Window 2"  ETV
vector 1104  CAIN.eNodeB1.sctp  "Number of Total Gap Blocks Stored 2"  ETV
vector 1105  CAIN.eNodeB1.sctp  "Number of Revokable Gap Blocks Stored 2"  ETV
vector 1106  CAIN.eNodeB1.sctp  "Number of Non-Revokable Gap Blocks Stored 2"  ETV
vector 1107  CAIN.eNodeB1.sctp  "Number of Duplicate TSNs Stored 2"  ETV
vector 1111  CAIN.eNodeB1.sctp  "Length of SACK Sent 2"  ETV
vector 1108  CAIN.eNodeB1.sctp  "Number of Revokable Gap Blocks Sent 2"  ETV
vector 1109  CAIN.eNodeB1.sctp  "Number of Non-Revokable Gap Blocks Sent 2"  ETV
vector 1110  CAIN.eNodeB1.sctp  "Number of Duplicate TSNs Sent 2"  ETV
vector 1115  CAIN.eNodeB1.sctp  "End to End Delay of Association 2"  ETV
vector 199  CAIN.eNodeB1.x2App[0].client  rcvdPk:vector(packetBytes)  ETV
attr interpolationmode  none
attr source  rcvdPk
attr title  "packets received, vector(packetBytes)"
vector 1464  CAIN.eNodeB.sctp  "Number of Gap Blocks in Last SACK of Association 6"  ETV
vector 1009  CAIN.eNodeB.sctp  "Number of Revokable Gap Blocks in SACK 3"  ETV
vector 1010  CAIN.eNodeB.sctp  "Number of Non-Revokable Gap Blocks in SACK 3"  ETV
vector 1345  CAIN.eNodeB.sctp  "TSN Acked CumAck 6:10.0.5.2"  ETV
vector 1311  CAIN.eNodeB.sctp  "Number of Gap Acked Chunks in Last SACK 6:10.0.3.2"  ETV
vector 1312  CAIN.eNodeB.sctp  "Number of Non-Revokable Gap Acked Chunks in Last SACK 6:10.0.3.2"  ETV
vector 1313  CAIN.eNodeB.sctp  "Number of Gap Missed Chunks in Last SACK 6:10.0.3.2"  ETV
vector 1284  CAIN.eNodeB.sctp  "Number of Gap Acked Chunks in Last SACK 6:10.0.4.2"  ETV
vector 1285  CAIN.eNodeB.sctp  "Number of Non-Revokable Gap Acked Chunks in Last SACK 6:10.0.4.2"  ETV
vector 1286  CAIN.eNodeB.sctp  "Number of Gap Missed Chunks in Last SACK 6:10.0.4.2"  ETV
vector 1338  CAIN.eNodeB.sctp  "Number of Gap Acked Chunks in Last SACK 6:10.0.5.2"  ETV
vector 1339  CAIN.eNodeB.sctp  "Number of Non-Revokable Gap Acked Chunks in Last SACK 6:10.0.5.2"  ETV
vector 1340  CAIN.eNodeB.sctp  "Number of Gap Missed Chunks in Last SACK 6:10.0.5.2"  ETV
vector 1019  CAIN.eNodeB.sctp  "Arwnd in Last SACK 3"  ETV
vector 1347  CAIN.eNodeB.sctp  "TSN PseudoCumAck 6:10.0.5.2"  ETV
vector 1348  CAIN.eNodeB.sctp  "TSN RTXPseudoCumAck 6:10.0.5.2"  ETV
vector 1341  CAIN.eNodeB.sctp  "Partial Bytes Acked 6:10.0.5.2"  ETV
vector 1493  CAIN.ueD2DTx[16].tcp  tcpRcvQueueBytes  ETV
vector 1480  CAIN.ueD2DTx[16].tcp  "advertised window"  ETV
vector 1479  CAIN.ueD2DTx[16].tcp  "receive window"  ETV
vector 1482  CAIN.ueD2DTx[16].tcp  "sent ack"  ETV
vector 717  CAIN.ueD2DTx[16].nic.pdcpRrc  receivedPacketFromUpperLayer:vector(packetBytes)  ETV
attr interpolationmode  none
attr source  receivedPacketFromUpperLayer
vector 720  CAIN.ueD2DTx[16].nic.pdcpRrc  sentPacketToLowerLayer:vector(packetBytes)  ETV
attr interpolationmode  none
attr source  sentPacketToLowerLayer
vector 721  CAIN.ueD2DTx[16].nic.mac  receivedPacketFromUpperLayer:vector(packetBytes)  ETV
attr interpolationmode  none
attr source  receivedPacketFromUpperLayer
vector 724  CAIN.ueD2DTx[16].nic.mac  sentPacketToLowerLayer:vector(packetBytes)  ETV
attr interpolationmode  none
attr source  sentPacketToLowerLayer
vector 111  CAIN.eNodeB.nic.mac  racpkt:vector  ETV
attr interpolationmode  none
attr title  "eNB received racpkt message, vector"
vector 112  CAIN.eNodeB.nic.mac  racDistanceSignal:vector  ETV
attr interpolationmode  none
attr title  "Rac distance to enb, vector"
vector 113  CAIN.eNodeB.nic.mac  racServedDevsSignal:vector  ETV
attr interpolationmode  none
attr title  "# of devices served on rac arriavall, vector"
vector 98  CAIN.eNodeB.nic.mac  sentPacketToLowerLayer:vector(packetBytes)  ETV
attr interpolationmode  none
attr source  sentPacketToLowerLayer
vector 722  CAIN.ueD2DTx[16].nic.mac  receivedPacketFromLowerLayer:vector(packetBytes)  ETV
attr interpolationmode  none
attr source  receivedPacketFromLowerLayer
vector 723  CAIN.ueD2DTx[16].nic.mac  sentPacketToUpperLayer:vector(packetBytes)  ETV
attr interpolationmode  none
attr source  sentPacketToUpperLayer
vector 1517  CAIN.ueD2DTx[21].tcp  tcpRcvQueueBytes  ETV
vector 1504  CAIN.ueD2DTx[21].tcp  "advertised window"  ETV
vector 1503  CAIN.ueD2DTx[21].tcp  "receive window"  ETV
vector 1506  CAIN.ueD2DTx[21].tcp  "sent ack"  ETV
vector 877  CAIN.ueD2DTx[21].nic.pdcpRrc  receivedPacketFromUpperLayer:vector(packetBytes)  ETV
attr interpolationmode  none
attr source  receivedPacketFromUpperLayer
vector 880  CAIN.ueD2DTx[21].nic.pdcpRrc  sentPacketToLowerLayer:vector(packetBytes)  ETV
attr interpolationmode  none
attr source  sentPacketToLowerLayer
vector 881  CAIN.ueD2DTx[21].nic.mac  receivedPacketFromUpperLayer:vector(packetBytes)  ETV
attr interpolationmode  none
attr source  receivedPacketFromUpperLayer
vector 891  CAIN.ueD2DTx[21].nic.mac  CainHopMessageSent:vector  ETV
attr interpolationmode  none
attr title  "# of Sent CAIN hop message, vector"
vector 884  CAIN.ueD2DTx[21].nic.mac  sentPacketToLowerLayer:vector(packetBytes)  ETV
attr interpolationmode  none
attr source  sentPacketToLowerLayer
vector 850  CAIN.ueD2DTx[20].nic.mac  receivedPacketFromLowerLayer:vector(packetBytes)  ETV
attr interpolationmode  none
attr source  receivedPacketFromLowerLayer
vector 852  CAIN.ueD2DTx[20].nic.mac  sentPacketToLowerLayer:vector(packetBytes)  ETV
attr interpolationmode  none
attr source  sentPacketToLowerLayer
vector 818  CAIN.ueD2DTx[19].nic.mac  receivedPacketFromLowerLayer:vector(packetBytes)  ETV
attr interpolationmode  none
attr source  receivedPacketFromLowerLayer
vector 820  CAIN.ueD2DTx[19].nic.mac  sentPacketToLowerLayer:vector(packetBytes)  ETV
attr interpolationmode  none
attr source  sentPacketToLowerLayer
vector 106  CAIN.eNodeB.nic.mac  DistanceSignal:vector  ETV
attr interpolationmode  none
attr title  "Distance to enb, vector"
vector 101  CAIN.eNodeB.nic.mac  CainHopMessage:vector  ETV
attr interpolationmode  none
attr title  "eNB received CAIN hop message, vector"
vector 1541  CAIN.ueD2DTx[3].tcp  tcpRcvQueueBytes  ETV
vector 1528  CAIN.ueD2DTx[3].tcp  "advertised window"  ETV
vector 1527  CAIN.ueD2DTx[3].tcp  "receive window"  ETV
vector 1530  CAIN.ueD2DTx[3].tcp  "sent ack"  ETV
vector 301  CAIN.ueD2DTx[3].nic.pdcpRrc  receivedPacketFromUpperLayer:vector(packetBytes)  ETV
attr interpolationmode  none
attr source  receivedPacketFromUpperLayer
vector 304  CAIN.ueD2DTx[3].nic.pdcpRrc  sentPacketToLowerLayer:vector(packetBytes)  ETV
attr interpolationmode  none
attr source  sentPacketToLowerLayer
vector 305  CAIN.ueD2DTx[3].nic.mac  receivedPacketFromUpperLayer:vector(packetBytes)  ETV
attr interpolationmode  none
attr source  receivedPacketFromUpperLayer
vector 308  CAIN.ueD2DTx[3].nic.mac  sentPacketToLowerLayer:vector(packetBytes)  ETV
attr interpolationmode  none
attr source  sentPacketToLowerLayer
vector 825  CAIN.ueD2DTx[19].nic.mac  DropedHopMessage:vector  ETV
attr interpolationmode  none
attr title  "Droped Hop CAIN message due to RB not available, vector"
vector 1565  CAIN.ueD2DTx[20].tcp  tcpRcvQueueBytes  ETV
vector 1552  CAIN.ueD2DTx[20].tcp  "advertised window"  ETV
vector 1551  CAIN.ueD2DTx[20].tcp  "receive window"  ETV
vector 1554  CAIN.ueD2DTx[20].tcp  "sent ack"  ETV
vector 845  CAIN.ueD2DTx[20].nic.pdcpRrc  receivedPacketFromUpperLayer:vector(packetBytes)  ETV
attr interpolationmode  none
attr source  receivedPacketFromUpperLayer
vector 848  CAIN.ueD2DTx[20].nic.pdcpRrc  sentPacketToLowerLayer:vector(packetBytes)  ETV
attr interpolationmode  none
attr source  sentPacketToLowerLayer
vector 849  CAIN.ueD2DTx[20].nic.mac  receivedPacketFromUpperLayer:vector(packetBytes)  ETV
attr interpolationmode  none
attr source  receivedPacketFromUpperLayer
vector 859  CAIN.ueD2DTx[20].nic.mac  CainHopMessageSent:vector  ETV
attr interpolationmode  none
attr title  "# of Sent CAIN hop message, vector"
vector 690  CAIN.ueD2DTx[15].nic.mac  receivedPacketFromLowerLayer:vector(packetBytes)  ETV
attr interpolationmode  none
attr source  receivedPacketFromLowerLayer
vector 692  CAIN.ueD2DTx[15].nic.mac  sentPacketToLowerLayer:vector(packetBytes)  ETV
attr interpolationmode  none
attr source  sentPacketToLowerLayer
vector 306  CAIN.ueD2DTx[3].nic.mac  receivedPacketFromLowerLayer:vector(packetBytes)  ETV
attr interpolationmode  none
attr source  receivedPacketFromLowerLayer
vector 307  CAIN.ueD2DTx[3].nic.mac  sentPacketToUpperLayer:vector(packetBytes)  ETV
attr interpolationmode  none
attr source  sentPacketToUpperLayer
vector 1589  CAIN.ueD2DTx[7].tcp  tcpRcvQueueBytes  ETV
vector 1576  CAIN.ueD2DTx[7].tcp  "advertised window"  ETV
vector 1575  CAIN.ueD2DTx[7].tcp  "receive window"  ETV
vector 1578  CAIN.ueD2DTx[7].tcp  "sent ack"  ETV
vector 429  CAIN.ueD2DTx[7].nic.pdcpRrc  receivedPacketFromUpperLayer:vector(packetBytes)  ETV
attr interpolationmode  none
attr source  receivedPacketFromUpperLayer
vector 432  CAIN.ueD2DTx[7].nic.pdcpRrc  sentPacketToLowerLayer:vector(packetBytes)  ETV
attr interpolationmode  none
attr source  sentPacketToLowerLayer
vector 433  CAIN.ueD2DTx[7].nic.mac  receivedPacketFromUpperLayer:vector(packetBytes)  ETV
attr interpolationmode  none
attr source  receivedPacketFromUpperLayer
vector 442  CAIN.ueD2DTx[7].nic.mac  CainMessageSent:vector  ETV
attr interpolationmode  none
attr title  "# of Sent CAIN message, vector"
vector 436  CAIN.ueD2DTx[7].nic.mac  sentPacketToLowerLayer:vector(packetBytes)  ETV
attr interpolationmode  none
attr source  sentPacketToLowerLayer
vector 594  CAIN.ueD2DTx[12].nic.mac  receivedPacketFromLowerLayer:vector(packetBytes)  ETV
attr interpolationmode  none
attr source  receivedPacketFromLowerLayer
vector 596  CAIN.ueD2DTx[12].nic.mac  sentPacketToLowerLayer:vector(packetBytes)  ETV
attr interpolationmode  none
attr source  sentPacketToLowerLayer
vector 1613  CAIN.ueD2DTx[18].tcp  tcpRcvQueueBytes  ETV
vector 1600  CAIN.ueD2DTx[18].tcp  "advertised window"  ETV
vector 1599  CAIN.ueD2DTx[18].tcp  "receive window"  ETV
vector 1602  CAIN.ueD2DTx[18].tcp  "sent ack"  ETV
vector 781  CAIN.ueD2DTx[18].nic.pdcpRrc  receivedPacketFromUpperLayer:vector(packetBytes)  ETV
attr interpolationmode  none
attr source  receivedPacketFromUpperLayer
vector 784  CAIN.ueD2DTx[18].nic.pdcpRrc  sentPacketToLowerLayer:vector(packetBytes)  ETV
attr interpolationmode  none
attr source  sentPacketToLowerLayer
vector 785  CAIN.ueD2DTx[18].nic.mac  receivedPacketFromUpperLayer:vector(packetBytes)  ETV
attr interpolationmode  none
attr source  receivedPacketFromUpperLayer
vector 788  CAIN.ueD2DTx[18].nic.mac  sentPacketToLowerLayer:vector(packetBytes)  ETV
attr interpolationmode  none
attr source  sentPacketToLowerLayer
vector 100  CAIN.eNodeB.nic.mac  CainMessage:vector  ETV
attr interpolationmode  none
attr title  "eNB received CAIN message, vector"
vector 600  CAIN.ueD2DTx[12].nic.mac  DropedCainMessage:vector  ETV
attr interpolationmode  none
attr title  "Droped CAIN message due to RB not available, vector"
vector 786  CAIN.ueD2DTx[18].nic.mac  receivedPacketFromLowerLayer:vector(packetBytes)  ETV
attr interpolationmode  none
attr source  receivedPacketFromLowerLayer
vector 1637  CAIN.ueD2DTx[10].tcp  tcpRcvQueueBytes  ETV
vector 1624  CAIN.ueD2DTx[10].tcp  "advertised window"  ETV
vector 1623  CAIN.ueD2DTx[10].tcp  "receive window"  ETV
vector 1626  CAIN.ueD2DTx[10].tcp  "sent ack"  ETV
vector 525  CAIN.ueD2DTx[10].nic.pdcpRrc  receivedPacketFromUpperLayer:vector(packetBytes)  ETV
attr interpolationmode  none
attr source  receivedPacketFromUpperLayer
vector 528  CAIN.ueD2DTx[10].nic.pdcpRrc  sentPacketToLowerLayer:vector(packetBytes)  ETV
attr interpolationmode  none
attr source  sentPacketToLowerLayer
vector 529  CAIN.ueD2DTx[10].nic.mac  receivedPacketFromUpperLayer:vector(packetBytes)  ETV
attr interpolationmode  none
attr source  receivedPacketFromUpperLayer
vector 532  CAIN.ueD2DTx[10].nic.mac  sentPacketToLowerLayer:vector(packetBytes)  ETV
attr interpolationmode  none
attr source  sentPacketToLowerLayer
vector 787  CAIN.ueD2DTx[18].nic.mac  sentPacketToUpperLayer:vector(packetBytes)  ETV
attr interpolationmode  none
attr source  sentPacketToUpperLayer
vector 530  CAIN.ueD2DTx[10].nic.mac  receivedPacketFromLowerLayer:vector(packetBytes)  ETV
attr interpolationmode  none
attr source  receivedPacketFromLowerLayer
vector 531  CAIN.ueD2DTx[10].nic.mac  sentPacketToUpperLayer:vector(packetBytes)  ETV
attr interpolationmode  none
attr source  sentPacketToUpperLayer
vector 1661  CAIN.ueD2DTx[8].tcp  tcpRcvQueueBytes  ETV
vector 1648  CAIN.ueD2DTx[8].tcp  "advertised window"  ETV
vector 1647  CAIN.ueD2DTx[8].tcp  "receive window"  ETV
vector 1650  CAIN.ueD2DTx[8].tcp  "sent ack"  ETV
vector 461  CAIN.ueD2DTx[8].nic.pdcpRrc  receivedPacketFromUpperLayer:vector(packetBytes)  ETV
attr interpolationmode  none
attr source  receivedPacketFromUpperLayer
vector 464  CAIN.ueD2DTx[8].nic.pdcpRrc  sentPacketToLowerLayer:vector(packetBytes)  ETV
attr interpolationmode  none
attr source  sentPacketToLowerLayer
vector 465  CAIN.ueD2DTx[8].nic.mac  receivedPacketFromUpperLayer:vector(packetBytes)  ETV
attr interpolationmode  none
attr source  receivedPacketFromUpperLayer
vector 1685  CAIN.ueD2DTx[9].tcp  tcpRcvQueueBytes  ETV
vector 1672  CAIN.ueD2DTx[9].tcp  "advertised window"  ETV
vector 1671  CAIN.ueD2DTx[9].tcp  "receive window"  ETV
vector 1674  CAIN.ueD2DTx[9].tcp  "sent ack"  ETV
vector 493  CAIN.ueD2DTx[9].nic.pdcpRrc  receivedPacketFromUpperLayer:vector(packetBytes)  ETV
attr interpolationmode  none
attr source  receivedPacketFromUpperLayer
vector 496  CAIN.ueD2DTx[9].nic.pdcpRrc  sentPacketToLowerLayer:vector(packetBytes)  ETV
attr interpolationmode  none
attr source  sentPacketToLowerLayer
vector 497  CAIN.ueD2DTx[9].nic.mac  receivedPacketFromUpperLayer:vector(packetBytes)  ETV
attr interpolationmode  none
attr source  receivedPacketFromUpperLayer
vector 474  CAIN.ueD2DTx[8].nic.mac  CainMessageSent:vector  ETV
attr interpolationmode  none
attr title  "# of Sent CAIN message, vector"
vector 468  CAIN.ueD2DTx[8].nic.mac  sentPacketToLowerLayer:vector(packetBytes)  ETV
attr interpolationmode  none
attr source  sentPacketToLowerLayer
vector 500  CAIN.ueD2DTx[9].nic.mac  sentPacketToLowerLayer:vector(packetBytes)  ETV
attr interpolationmode  none
attr source  sentPacketToLowerLayer
vector 1709  CAIN.ueD2DTx[14].tcp  tcpRcvQueueBytes  ETV
vector 1696  CAIN.ueD2DTx[14].tcp  "advertised window"  ETV
vector 1695  CAIN.ueD2DTx[14].tcp  "receive window"  ETV
vector 1698  CAIN.ueD2DTx[14].tcp  "sent ack"  ETV
vector 653  CAIN.ueD2DTx[14].nic.pdcpRrc  receivedPacketFromUpperLayer:vector(packetBytes)  ETV
attr interpolationmode  none
attr source  receivedPacketFromUpperLayer
vector 656  CAIN.ueD2DTx[14].nic.pdcpRrc  sentPacketToLowerLayer:vector(packetBytes)  ETV
attr interpolationmode  none
attr source  sentPacketToLowerLayer
vector 657  CAIN.ueD2DTx[14].nic.mac  receivedPacketFromUpperLayer:vector(packetBytes)  ETV
attr interpolationmode  none
attr source  receivedPacketFromUpperLayer
vector 667  CAIN.ueD2DTx[14].nic.mac  CainHopMessageSent:vector  ETV
attr interpolationmode  none
attr title  "# of Sent CAIN hop message, vector"
vector 660  CAIN.ueD2DTx[14].nic.mac  sentPacketToLowerLayer:vector(packetBytes)  ETV
attr interpolationmode  none
attr source  sentPacketToLowerLayer
vector 946  CAIN.ueD2DTx[23].nic.mac  receivedPacketFromLowerLayer:vector(packetBytes)  ETV
attr interpolationmode  none
attr source  receivedPacketFromLowerLayer
vector 948  CAIN.ueD2DTx[23].nic.mac  sentPacketToLowerLayer:vector(packetBytes)  ETV
attr interpolationmode  none
attr source  sentPacketToLowerLayer
vector 1733  CAIN.ueD2DTx[22].tcp  tcpRcvQueueBytes  ETV
vector 1720  CAIN.ueD2DTx[22].tcp  "advertised window"  ETV
vector 1719  CAIN.ueD2DTx[22].tcp  "receive window"  ETV
vector 1722  CAIN.ueD2DTx[22].tcp  "sent ack"  ETV
vector 909  CAIN.ueD2DTx[22].nic.pdcpRrc  receivedPacketFromUpperLayer:vector(packetBytes)  ETV
attr interpolationmode  none
attr source  receivedPacketFromUpperLayer
vector 912  CAIN.ueD2DTx[22].nic.pdcpRrc  sentPacketToLowerLayer:vector(packetBytes)  ETV
attr interpolationmode  none
attr source  sentPacketToLowerLayer
vector 913  CAIN.ueD2DTx[22].nic.mac  receivedPacketFromUpperLayer:vector(packetBytes)  ETV
attr interpolationmode  none
attr source  receivedPacketFromUpperLayer
vector 922  CAIN.ueD2DTx[22].nic.mac  CainMessageSent:vector  ETV
attr interpolationmode  none
attr title  "# of Sent CAIN message, vector"
vector 916  CAIN.ueD2DTx[22].nic.mac  sentPacketToLowerLayer:vector(packetBytes)  ETV
attr interpolationmode  none
attr source  sentPacketToLowerLayer
vector 498  CAIN.ueD2DTx[9].nic.mac  receivedPacketFromLowerLayer:vector(packetBytes)  ETV
attr interpolationmode  none
attr source  receivedPacketFromLowerLayer
vector 242  CAIN.ueD2DTx[1].nic.mac  receivedPacketFromLowerLayer:vector(packetBytes)  ETV
attr interpolationmode  none
attr source  receivedPacketFromLowerLayer
vector 244  CAIN.ueD2DTx[1].nic.mac  sentPacketToLowerLayer:vector(packetBytes)  ETV
attr interpolationmode  none
attr source  sentPacketToLowerLayer
vector 952  CAIN.ueD2DTx[23].nic.mac  DropedCainMessage:vector  ETV
attr interpolationmode  none
attr title  "Droped CAIN message due to RB not available, vector"
vector 499  CAIN.ueD2DTx[9].nic.mac  sentPacketToUpperLayer:vector(packetBytes)  ETV
attr interpolationmode  none
attr source  sentPacketToUpperLayer
vector 248  CAIN.ueD2DTx[1].nic.mac  DropedCainMessage:vector  ETV
attr interpolationmode  none
attr title  "Droped CAIN message due to RB not available, vector"
vector 1461  CAIN.eNodeB1.sctp  "SendQueue of Association 5"  ETV
vector 1225  CAIN.eNodeB1.sctp  "TSN Sent 5:10.0.5.1"  ETV
vector 1232  CAIN.eNodeB1.sctp  "Outstanding Bytes 5:10.0.5.1"  ETV
vector 1030  CAIN.eNodeB1.sctp  "Outstanding Bytes 4:Total"  ETV
vector 1231  CAIN.eNodeB1.sctp  "Queued Sent Bytes 5:10.0.5.1"  ETV
vector 1029  CAIN.eNodeB1.sctp  "Queued Sent Bytes 4:Total"  ETV
vector 1074  CAIN.eNodeB.sctp  "TSN Received 1:10.0.5.2"  ETV
vector 1050  CAIN.eNodeB.sctp  "Queued Received Bytes 1:Total"  ETV
vector 1046  CAIN.eNodeB.sctp  "Advertised Receiver Window 1"  ETV
vector 1055  CAIN.eNodeB.sctp  "Number of Total Gap Blocks Stored 1"  ETV
vector 1056  CAIN.eNodeB.sctp  "Number of Revokable Gap Blocks Stored 1"  ETV
vector 1057  CAIN.eNodeB.sctp  "Number of Non-Revokable Gap Blocks Stored 1"  ETV
vector 1058  CAIN.eNodeB.sctp  "Number of Duplicate TSNs Stored 1"  ETV
vector 1062  CAIN.eNodeB.sctp  "Length of SACK Sent 1"  ETV
vector 1059  CAIN.eNodeB.sctp  "Number of Revokable Gap Blocks Sent 1"  ETV
vector 1060  CAIN.eNodeB.sctp  "Number of Non-Revokable Gap Blocks Sent 1"  ETV
vector 1061  CAIN.eNodeB.sctp  "Number of Duplicate TSNs Sent 1"  ETV
vector 1066  CAIN.eNodeB.sctp  "End to End Delay of Association 1"  ETV
vector 141  CAIN.eNodeB.x2App[0].client  rcvdPk:vector(packetBytes)  ETV
attr interpolationmode  none
attr source  rcvdPk
attr title  "packets received, vector(packetBytes)"
vector 1460  CAIN.eNodeB1.sctp  "Number of Gap Blocks in Last SACK of Association 5"  ETV
vector 1031  CAIN.eNodeB1.sctp  "Number of Revokable Gap Blocks in SACK 4"  ETV
vector 1032  CAIN.eNodeB1.sctp  "Number of Non-Revokable Gap Blocks in SACK 4"  ETV
vector 1242  CAIN.eNodeB1.sctp  "TSN Acked CumAck 5:10.0.5.1"  ETV
vector 1208  CAIN.eNodeB1.sctp  "Number of Gap Acked Chunks in Last SACK 5:10.0.2.2"  ETV
vector 1209  CAIN.eNodeB1.sctp  "Number of Non-Revokable Gap Acked Chunks in Last SACK 5:10.0.2.2"  ETV
vector 1210  CAIN.eNodeB1.sctp  "Number of Gap Missed Chunks in Last SACK 5:10.0.2.2"  ETV
vector 1181  CAIN.eNodeB1.sctp  "Number of Gap Acked Chunks in Last SACK 5:10.0.4.1"  ETV
vector 1182  CAIN.eNodeB1.sctp  "Number of Non-Revokable Gap Acked Chunks in Last SACK 5:10.0.4.1"  ETV
vector 1183  CAIN.eNodeB1.sctp  "Number of Gap Missed Chunks in Last SACK 5:10.0.4.1"  ETV
vector 1235  CAIN.eNodeB1.sctp  "Number of Gap Acked Chunks in Last SACK 5:10.0.5.1"  ETV
vector 1236  CAIN.eNodeB1.sctp  "Number of Non-Revokable Gap Acked Chunks in Last SACK 5:10.0.5.1"  ETV
vector 1237  CAIN.eNodeB1.sctp  "Number of Gap Missed Chunks in Last SACK 5:10.0.5.1"  ETV
vector 1041  CAIN.eNodeB1.sctp  "Arwnd in Last SACK 4"  ETV
vector 1244  CAIN.eNodeB1.sctp  "TSN PseudoCumAck 5:10.0.5.1"  ETV
vector 1245  CAIN.eNodeB1.sctp  "TSN RTXPseudoCumAck 5:10.0.5.1"  ETV
vector 1238  CAIN.eNodeB1.sctp  "Partial Bytes Acked 5:10.0.5.1"  ETV
vector 1757  CAIN.ueD2DTx[4].tcp  tcpRcvQueueBytes  ETV
vector 1744  CAIN.ueD2DTx[4].tcp  "advertised window"  ETV
vector 1743  CAIN.ueD2DTx[4].tcp  "receive window"  ETV
vector 1746  CAIN.ueD2DTx[4].tcp  "sent ack"  ETV
vector 333  CAIN.ueD2DTx[4].nic.pdcpRrc  receivedPacketFromUpperLayer:vector(packetBytes)  ETV
attr interpolationmode  none
attr source  receivedPacketFromUpperLayer
vector 336  CAIN.ueD2DTx[4].nic.pdcpRrc  sentPacketToLowerLayer:vector(packetBytes)  ETV
attr interpolationmode  none
attr source  sentPacketToLowerLayer
vector 337  CAIN.ueD2DTx[4].nic.mac  receivedPacketFromUpperLayer:vector(packetBytes)  ETV
attr interpolationmode  none
attr source  receivedPacketFromUpperLayer
vector 340  CAIN.ueD2DTx[4].nic.mac  sentPacketToLowerLayer:vector(packetBytes)  ETV
attr interpolationmode  none
attr source  sentPacketToLowerLayer
vector 338  CAIN.ueD2DTx[4].nic.mac  receivedPacketFromLowerLayer:vector(packetBytes)  ETV
attr interpolationmode  none
attr source  receivedPacketFromLowerLayer
vector 154  CAIN.eNodeB1.nic.mac  receivedPacketFromLowerLayer:vector(packetBytes)  ETV
attr interpolationmode  none
attr source  receivedPacketFromLowerLayer
vector 339  CAIN.ueD2DTx[4].nic.mac  sentPacketToUpperLayer:vector(packetBytes)  ETV
attr interpolationmode  none
attr source  sentPacketToUpperLayer
vector 1781  CAIN.ueD2DTx[6].tcp  tcpRcvQueueBytes  ETV
vector 1768  CAIN.ueD2DTx[6].tcp  "advertised window"  ETV
vector 1767  CAIN.ueD2DTx[6].tcp  "receive window"  ETV
vector 1770  CAIN.ueD2DTx[6].tcp  "sent ack"  ETV
vector 397  CAIN.ueD2DTx[6].nic.pdcpRrc  receivedPacketFromUpperLayer:vector(packetBytes)  ETV
attr interpolationmode  none
attr source  receivedPacketFromUpperLayer
vector 400  CAIN.ueD2DTx[6].nic.pdcpRrc  sentPacketToLowerLayer:vector(packetBytes)  ETV
attr interpolationmode  none
attr source  sentPacketToLowerLayer
vector 401  CAIN.ueD2DTx[6].nic.mac  receivedPacketFromUpperLayer:vector(packetBytes)  ETV
attr interpolationmode  none
attr source  receivedPacketFromUpperLayer
vector 410  CAIN.ueD2DTx[6].nic.mac  CainMessageSent:vector  ETV
attr interpolationmode  none
attr title  "# of Sent CAIN message, vector"
vector 404  CAIN.ueD2DTx[6].nic.mac  sentPacketToLowerLayer:vector(packetBytes)  ETV
attr interpolationmode  none
attr source  sentPacketToLowerLayer
vector 1805  CAIN.ueD2DTx[13].tcp  tcpRcvQueueBytes  ETV
vector 1792  CAIN.ueD2DTx[13].tcp  "advertised window"  ETV
vector 1791  CAIN.ueD2DTx[13].tcp  "receive window"  ETV
vector 1794  CAIN.ueD2DTx[13].tcp  "sent ack"  ETV
vector 621  CAIN.ueD2DTx[13].nic.pdcpRrc  receivedPacketFromUpperLayer:vector(packetBytes)  ETV
attr interpolationmode  none
attr source  receivedPacketFromUpperLayer
vector 624  CAIN.ueD2DTx[13].nic.pdcpRrc  sentPacketToLowerLayer:vector(packetBytes)  ETV
attr interpolationmode  none
attr source  sentPacketToLowerLayer
vector 625  CAIN.ueD2DTx[13].nic.mac  receivedPacketFromUpperLayer:vector(packetBytes)  ETV
attr interpolationmode  none
attr source  receivedPacketFromUpperLayer
vector 628  CAIN.ueD2DTx[13].nic.mac  sentPacketToLowerLayer:vector(packetBytes)  ETV
attr interpolationmode  none
attr source  sentPacketToLowerLayer
vector 1829  CAIN.ueD2DTx[11].tcp  tcpRcvQueueBytes  ETV
vector 1816  CAIN.ueD2DTx[11].tcp  "advertised window"  ETV
vector 1815  CAIN.ueD2DTx[11].tcp  "receive window"  ETV
vector 1818  CAIN.ueD2DTx[11].tcp  "sent ack"  ETV
vector 557  CAIN.ueD2DTx[11].nic.pdcpRrc  receivedPacketFromUpperLayer:vector(packetBytes)  ETV
attr interpolationmode  none
attr source  receivedPacketFromUpperLayer
vector 560  CAIN.ueD2DTx[11].nic.pdcpRrc  sentPacketToLowerLayer:vector(packetBytes)  ETV
attr interpolationmode  none
attr source  sentPacketToLowerLayer
vector 561  CAIN.ueD2DTx[11].nic.mac  receivedPacketFromUpperLayer:vector(packetBytes)  ETV
attr interpolationmode  none
attr source  receivedPacketFromUpperLayer
vector 626  CAIN.ueD2DTx[13].nic.mac  receivedPacketFromLowerLayer:vector(packetBytes)  ETV
attr interpolationmode  none
attr source  receivedPacketFromLowerLayer
vector 1853  CAIN.ueD2DTx[1].tcp  tcpRcvQueueBytes  ETV
vector 1840  CAIN.ueD2DTx[1].tcp  "advertised window"  ETV
vector 1839  CAIN.ueD2DTx[1].tcp  "receive window"  ETV
vector 1842  CAIN.ueD2DTx[1].tcp  "sent ack"  ETV
vector 237  CAIN.ueD2DTx[1].nic.pdcpRrc  receivedPacketFromUpperLayer:vector(packetBytes)  ETV
attr interpolationmode  none
attr source  receivedPacketFromUpperLayer
vector 240  CAIN.ueD2DTx[1].nic.pdcpRrc  sentPacketToLowerLayer:vector(packetBytes)  ETV
attr interpolationmode  none
attr source  sentPacketToLowerLayer
vector 241  CAIN.ueD2DTx[1].nic.mac  receivedPacketFromUpperLayer:vector(packetBytes)  ETV
attr interpolationmode  none
attr source  receivedPacketFromUpperLayer
vector 1877  CAIN.ueD2DTx[15].tcp  tcpRcvQueueBytes  ETV
vector 1864  CAIN.ueD2DTx[15].tcp  "advertised window"  ETV
vector 1863  CAIN.ueD2DTx[15].tcp  "receive window"  ETV
vector 1866  CAIN.ueD2DTx[15].tcp  "sent ack"  ETV
vector 685  CAIN.ueD2DTx[15].nic.pdcpRrc  receivedPacketFromUpperLayer:vector(packetBytes)  ETV
attr interpolationmode  none
attr source  receivedPacketFromUpperLayer
vector 688  CAIN.ueD2DTx[15].nic.pdcpRrc  sentPacketToLowerLayer:vector(packetBytes)  ETV
attr interpolationmode  none
attr source  sentPacketToLowerLayer
vector 689  CAIN.ueD2DTx[15].nic.mac  receivedPacketFromUpperLayer:vector(packetBytes)  ETV
attr interpolationmode  none
attr source  receivedPacketFromUpperLayer
vector 627  CAIN.ueD2DTx[13].nic.mac  sentPacketToUpperLayer:vector(packetBytes)  ETV
attr interpolationmode  none
attr source  sentPacketToUpperLayer
vector 698  CAIN.ueD2DTx[15].nic.mac  CainMessageSent:vector  ETV
attr interpolationmode  none
attr title  "# of Sent CAIN message, vector"
vector 243  CAIN.ueD2DTx[1].nic.mac  sentPacketToUpperLayer:vector(packetBytes)  ETV
attr interpolationmode  none
attr source  sentPacketToUpperLayer
vector 108  CAIN.eNodeB.nic.mac  ServedDevs:vector  ETV
attr interpolationmode  none
attr title  "# of devices served on cain forwarding, vector"
vector 1901  CAIN.ueD2DTx[5].tcp  tcpRcvQueueBytes  ETV
vector 1888  CAIN.ueD2DTx[5].tcp  "advertised window"  ETV
vector 1887  CAIN.ueD2DTx[5].tcp  "receive window"  ETV
vector 1890  CAIN.ueD2DTx[5].tcp  "sent ack"  ETV
vector 365  CAIN.ueD2DTx[5].nic.pdcpRrc  receivedPacketFromUpperLayer:vector(packetBytes)  ETV
attr interpolationmode  none
attr source  receivedPacketFromUpperLayer
vector 368  CAIN.ueD2DTx[5].nic.pdcpRrc  sentPacketToLowerLayer:vector(packetBytes)  ETV
attr interpolationmode  none
attr source  sentPacketToLowerLayer
vector 369  CAIN.ueD2DTx[5].nic.mac  receivedPacketFromUpperLayer:vector(packetBytes)  ETV
attr interpolationmode  none
attr source  receivedPacketFromUpperLayer
vector 1925  CAIN.ueD2DTx[12].tcp  tcpRcvQueueBytes  ETV
vector 1912  CAIN.ueD2DTx[12].tcp  "advertised window"  ETV
vector 1911  CAIN.ueD2DTx[12].tcp  "receive window"  ETV
vector 1914  CAIN.ueD2DTx[12].tcp  "sent ack"  ETV
vector 589  CAIN.ueD2DTx[12].nic.pdcpRrc  receivedPacketFromUpperLayer:vector(packetBytes)  ETV
attr interpolationmode  none
attr source  receivedPacketFromUpperLayer
vector 592  CAIN.ueD2DTx[12].nic.pdcpRrc  sentPacketToLowerLayer:vector(packetBytes)  ETV
attr interpolationmode  none
attr source  sentPacketToLowerLayer
vector 593  CAIN.ueD2DTx[12].nic.mac  receivedPacketFromUpperLayer:vector(packetBytes)  ETV
attr interpolationmode  none
attr source  receivedPacketFromUpperLayer
vector 1949  CAIN.ueD2DTx[0].tcp  tcpRcvQueueBytes  ETV
vector 1936  CAIN.ueD2DTx[0].tcp  "advertised window"  ETV
vector 1935  CAIN.ueD2DTx[0].tcp  "receive window"  ETV
vector 1938  CAIN.ueD2DTx[0].tcp  "sent ack"  ETV
vector 205  CAIN.ueD2DTx[0].nic.pdcpRrc  receivedPacketFromUpperLayer:vector(packetBytes)  ETV
attr interpolationmode  none
attr source  receivedPacketFromUpperLayer
vector 208  CAIN.ueD2DTx[0].nic.pdcpRrc  sentPacketToLowerLayer:vector(packetBytes)  ETV
attr interpolationmode  none
attr source  sentPacketToLowerLayer
vector 209  CAIN.ueD2DTx[0].nic.mac  receivedPacketFromUpperLayer:vector(packetBytes)  ETV
attr interpolationmode  none
attr source  receivedPacketFromUpperLayer
vector 218  CAIN.ueD2DTx[0].nic.mac  CainMessageSent:vector  ETV
attr interpolationmode  none
attr title  "# of Sent CAIN message, vector"
vector 212  CAIN.ueD2DTx[0].nic.mac  sentPacketToLowerLayer:vector(packetBytes)  ETV
attr interpolationmode  none
attr source  sentPacketToLowerLayer
vector 1973  CAIN.ueD2DTx[17].tcp  tcpRcvQueueBytes  ETV
vector 1960  CAIN.ueD2DTx[17].tcp  "advertised window"  ETV
vector 1959  CAIN.ueD2DTx[17].tcp  "receive window"  ETV
vector 1962  CAIN.ueD2DTx[17].tcp  "sent ack"  ETV
vector 749  CAIN.ueD2DTx[17].nic.pdcpRrc  receivedPacketFromUpperLayer:vector(packetBytes)  ETV
attr interpolationmode  none
attr source  receivedPacketFromUpperLayer
vector 752  CAIN.ueD2DTx[17].nic.pdcpRrc  sentPacketToLowerLayer:vector(packetBytes)  ETV
attr interpolationmode  none
attr source  sentPacketToLowerLayer
vector 753  CAIN.ueD2DTx[17].nic.mac  receivedPacketFromUpperLayer:vector(packetBytes)  ETV
attr interpolationmode  none
attr source  receivedPacketFromUpperLayer
vector 762  CAIN.ueD2DTx[17].nic.mac  CainMessageSent:vector  ETV
attr interpolationmode  none
attr title  "# of Sent CAIN message, vector"
vector 756  CAIN.ueD2DTx[17].nic.mac  sentPacketToLowerLayer:vector(packetBytes)  ETV
attr interpolationmode  none
attr source  sentPacketToLowerLayer
vector 595  CAIN.ueD2DTx[12].nic.mac  sentPacketToUpperLayer:vector(packetBytes)  ETV
attr interpolationmode  none
attr source  sentPacketToUpperLayer
vector 1997  CAIN.ueD2DTx[23].tcp  tcpRcvQueueBytes  ETV
vector 1984  CAIN.ueD2DTx[23].tcp  "advertised window"  ETV
vector 1983  CAIN.ueD2DTx[23].tcp  "receive window"  ETV
vector 1986  CAIN.ueD2DTx[23].tcp  "sent ack"  ETV
vector 941  CAIN.ueD2DTx[23].nic.pdcpRrc  receivedPacketFromUpperLayer:vector(packetBytes)  ETV
attr interpolationmode  none
attr source  receivedPacketFromUpperLayer
vector 944  CAIN.ueD2DTx[23].nic.pdcpRrc  sentPacketToLowerLayer:vector(packetBytes)  ETV
attr interpolationmode  none
attr source  sentPacketToLowerLayer
vector 945  CAIN.ueD2DTx[23].nic.mac  receivedPacketFromUpperLayer:vector(packetBytes)  ETV
attr interpolationmode  none
attr source  receivedPacketFromUpperLayer
vector 2021  CAIN.ueD2DTx[2].tcp  tcpRcvQueueBytes  ETV
vector 2008  CAIN.ueD2DTx[2].tcp  "advertised window"  ETV
vector 2007  CAIN.ueD2DTx[2].tcp  "receive window"  ETV
vector 2010  CAIN.ueD2DTx[2].tcp  "sent ack"  ETV
vector 269  CAIN.ueD2DTx[2].nic.pdcpRrc  receivedPacketFromUpperLayer:vector(packetBytes)  ETV
attr interpolationmode  none
attr source  receivedPacketFromUpperLayer
vector 272  CAIN.ueD2DTx[2].nic.pdcpRrc  sentPacketToLowerLayer:vector(packetBytes)  ETV
attr interpolationmode  none
attr source  sentPacketToLowerLayer
vector 273  CAIN.ueD2DTx[2].nic.mac  receivedPacketFromUpperLayer:vector(packetBytes)  ETV
attr interpolationmode  none
attr source  receivedPacketFromUpperLayer
vector 276  CAIN.ueD2DTx[2].nic.mac  sentPacketToLowerLayer:vector(packetBytes)  ETV
attr interpolationmode  none
attr source  sentPacketToLowerLayer
vector 2045  CAIN.ueD2DTx[24].tcp  tcpRcvQueueBytes  ETV
vector 2032  CAIN.ueD2DTx[24].tcp  "advertised window"  ETV
vector 2031  CAIN.ueD2DTx[24].tcp  "receive window"  ETV
vector 2034  CAIN.ueD2DTx[24].tcp  "sent ack"  ETV
vector 973  CAIN.ueD2DTx[24].nic.pdcpRrc  receivedPacketFromUpperLayer:vector(packetBytes)  ETV
attr interpolationmode  none
attr source  receivedPacketFromUpperLayer
vector 976  CAIN.ueD2DTx[24].nic.pdcpRrc  sentPacketToLowerLayer:vector(packetBytes)  ETV
attr interpolationmode  none
attr source  sentPacketToLowerLayer
vector 977  CAIN.ueD2DTx[24].nic.mac  receivedPacketFromUpperLayer:vector(packetBytes)  ETV
attr interpolationmode  none
attr source  receivedPacketFromUpperLayer
vector 980  CAIN.ueD2DTx[24].nic.mac  sentPacketToLowerLayer:vector(packetBytes)  ETV
attr interpolationmode  none
attr source  sentPacketToLowerLayer
vector 169  CAIN.eNodeB1.nic.mac  racpkt:vector  ETV
attr interpolationmode  none
attr title  "eNB received racpkt message, vector"
vector 170  CAIN.eNodeB1.nic.mac  racDistanceSignal:vector  ETV
attr interpolationmode  none
attr title  "Rac distance to enb, vector"
vector 171  CAIN.eNodeB1.nic.mac  racServedDevsSignal:vector  ETV
attr interpolationmode  none
attr title  "# of devices served on rac arriavall, vector"
vector 156  CAIN.eNodeB1.nic.mac  sentPacketToLowerLayer:vector(packetBytes)  ETV
attr interpolationmode  none
attr source  sentPacketToLowerLayer
vector 274  CAIN.ueD2DTx[2].nic.mac  receivedPacketFromLowerLayer:vector(packetBytes)  ETV
attr interpolationmode  none
attr source  receivedPacketFromLowerLayer
vector 947  CAIN.ueD2DTx[23].nic.mac  sentPacketToUpperLayer:vector(packetBytes)  ETV
attr interpolationmode  none
attr source  sentPacketToUpperLayer
vector 978  CAIN.ueD2DTx[24].nic.mac  receivedPacketFromLowerLayer:vector(packetBytes)  ETV
attr interpolationmode  none
attr source  receivedPacketFromLowerLayer
vector 2069  CAIN.ueD2DTx[19].tcp  tcpRcvQueueBytes  ETV
vector 2056  CAIN.ueD2DTx[19].tcp  "advertised window"  ETV
vector 2055  CAIN.ueD2DTx[19].tcp  "receive window"  ETV
vector 2058  CAIN.ueD2DTx[19].tcp  "sent ack"  ETV
vector 813  CAIN.ueD2DTx[19].nic.pdcpRrc  receivedPacketFromUpperLayer:vector(packetBytes)  ETV
attr interpolationmode  none
attr source  receivedPacketFromUpperLayer
vector 816  CAIN.ueD2DTx[19].nic.pdcpRrc  sentPacketToLowerLayer:vector(packetBytes)  ETV
attr interpolationmode  none
attr source  sentPacketToLowerLayer
vector 817  CAIN.ueD2DTx[19].nic.mac  receivedPacketFromUpperLayer:vector(packetBytes)  ETV
attr interpolationmode  none
attr source  receivedPacketFromUpperLayer
vector 275  CAIN.ueD2DTx[2].nic.mac  sentPacketToUpperLayer:vector(packetBytes)  ETV
attr interpolationmode  none
attr source  sentPacketToUpperLayer
vector 411  CAIN.ueD2DTx[6].nic.mac  CainHopMessageSent:vector  ETV
attr interpolationmode  none
attr title  "# of Sent CAIN hop message, vector"
vector 434  CAIN.ueD2DTx[7].nic.mac  receivedPacketFromLowerLayer:vector(packetBytes)  ETV
attr interpolationmode  none
attr source  receivedPacketFromLowerLayer
vector 109  CAIN.eNodeB.nic.mac  ServedHopDevs:vector  ETV
attr interpolationmode  none
attr title  "# of devices served on hop forwarding, vector"
vector 564  CAIN.ueD2DTx[11].nic.mac  sentPacketToLowerLayer:vector(packetBytes)  ETV
attr interpolationmode  none
attr source  sentPacketToLowerLayer
vector 562  CAIN.ueD2DTx[11].nic.mac  receivedPacketFromLowerLayer:vector(packetBytes)  ETV
attr interpolationmode  none
attr source  receivedPacketFromLowerLayer
vector 563  CAIN.ueD2DTx[11].nic.mac  sentPacketToUpperLayer:vector(packetBytes)  ETV
attr interpolationmode  none
attr source  sentPacketToUpperLayer
vector 379  CAIN.ueD2DTx[5].nic.mac  CainHopMessageSent:vector  ETV
attr interpolationmode  none
attr title  "# of Sent CAIN hop message, vector"
vector 372  CAIN.ueD2DTx[5].nic.mac  sentPacketToLowerLayer:vector(packetBytes)  ETV
attr interpolationmode  none
attr source  sentPacketToLowerLayer
vector 173  CAIN.eNodeB1.nic.phy  averageCqiUlvect:vector  ETV
attr source  averageCqiUlvect
attr title  "Average Cqi reported in UL, vector"
attr unit  cqi
vector 819  CAIN.ueD2DTx[19].nic.mac  sentPacketToUpperLayer:vector(packetBytes)  ETV
attr interpolationmode  none
attr source  sentPacketToUpperLayer
vector 986  CAIN.ueD2DTx[24].nic.mac  CainMessageSent:vector  ETV
attr interpolationmode  none
attr title  "# of Sent CAIN message, vector"
vector 157  CAIN.eNodeB1.nic.mac  measuredItbs:vector  ETV
attr source  measuredItbs
attr title  "TBS index, vector"
attr unit  ""
vector 979  CAIN.ueD2DTx[24].nic.mac  sentPacketToUpperLayer:vector(packetBytes)  ETV
attr interpolationmode  none
attr source  sentPacketToUpperLayer
vector 691  CAIN.ueD2DTx[15].nic.mac  sentPacketToUpperLayer:vector(packetBytes)  ETV
attr interpolationmode  none
attr source  sentPacketToUpperLayer
vector 754  CAIN.ueD2DTx[17].nic.mac  receivedPacketFromLowerLayer:vector(packetBytes)  ETV
attr interpolationmode  none
attr source  receivedPacketFromLowerLayer
vector 443  CAIN.ueD2DTx[7].nic.mac  CainHopMessageSent:vector  ETV
attr interpolationmode  none
attr title  "# of Sent CAIN hop message, vector"
vector 755  CAIN.ueD2DTx[17].nic.mac  sentPacketToUpperLayer:vector(packetBytes)  ETV
attr interpolationmode  none
attr source  sentPacketToUpperLayer
vector 794  CAIN.ueD2DTx[18].nic.mac  CainMessageSent:vector  ETV
attr interpolationmode  none
attr title  "# of Sent CAIN message, vector"
vector 603  CAIN.ueD2DTx[12].nic.mac  CainHopMessageSent:vector  ETV
attr interpolationmode  none
attr title  "# of Sent CAIN hop message, vector"
1268	57275 24 175 175 0.0000001228 0.0000001228 1 0 0 0 0
1379	57299 28 260 260 0.0000006304 0.0000006304 1 65535 65535 65535 4294836225
1380	57327 27 260 260 0.0000006304 0.0000006304 1 8940 8940 8940 79923600
1381	57354 29 260 260 0.0000006304 0.0000006304 1 0.3725 0.3725 0.3725 0.13875625
1377	57383 24 260 260 0.0000006304 0.0000006304 1 3 3 3 9
1384	57407 24 260 260 0.0000006304 0.0000006304 1 1 1 1 1
1396	57431 24 188 188 0.0000003096 0.0000003096 1 0 0 0 0
1352	57455 28 260 260 0.0000006304 0.0000006304 1 65535 65535 65535 4294836225
1353	57483 27 260 260 0.0000006304 0.0000006304 1 8940 8940 8940 79923600
1354	57510 29 260 260 0.0000006304 0.0000006304 1 0.3725 0.3725 0.3725 0.13875625
1350	57539 24 260 260 0.0000006304 0.0000006304 1 3 3 3 9
1357	57563 24 260 260 0.0000006304 0.0000006304 1 1 1 1 1
1369	57587 24 188 188 0.0000003096 0.0000003096 1 0 0 0 0
1070	57611 28 260 260 0.0000006304 0.0000006304 1 65535 65535 65535 4294836225
1071	57639 27 260 260 0.0000006304 0.0000006304 1 8940 8940 8940 79923600
1072	57666 29 260 260 0.0000006304 0.0000006304 1 0.3725 0.3725 0.3725 0.13875625
1068	57695 48 260 327 0.0000006304 0.0000008564 2 1 3 4 10
1069	57743 31 327 327 0.0000008564 0.0000008564 1 2.26e-07 2.26e-07 2.26e-07 5.1076e-14
1074	57774 2080 3816 19348 0.0570000972 0.2570015836 72 2000 2071 146556 298345836
1077	59854 46 232 246 0.000000552 0.000000596 2 1 2 3 5
1076	59900 46 232 246 0.000000552 0.000000596 2 1 2 3 5
1078	59946 48 327 333 0.0000008564 0.0000009004 2 1 2 3 5
1087	59994 13 156 156 0 0 1 0 0 0 0
1046	60007 89 3816 34468 0.0570000972 0.4570015836 3 65533 65535 196603 12884246539
1050	60096 1944 3816 34468 0.0570000972 0.4570015836 75 0 128 146 16588
1055	62040 77 3816 34468 0.0570000972 0.4570015836 3 0 0 0 0
1056	62117 77 3816 34468 0.0570000972 0.4570015836 3 0 0 0 0
1057	62194 77 3816 34468 0.0570000972 0.4570015836 3 0 0 0 0
1058	62271 77 3816 34468 0.0570000972 0.4570015836 3 0 0 0 0
1059	62348 77 3816 34468 0.0570000972 0.4570015836 3 0 0 0 0
1060	62425 77 3816 34468 0.0570000972 0.4570015836 3 0 0 0 0
1061	62502 77 3816 34468 0.0570000972 0.4570015836 3 0 0 0 0
1062	62579 80 3816 34468 0.0570000972 0.4570015836 3 16 16 48 768
1064	62659 28 188 188 0.0000003096 0.0000003096 1 65535 65535 65535 4294836225
1066	62687 2503 3819 19413 0.0570000972 0.2570015836 72 9.72e-08 1.1052e-06 7.21824e-05 7.844462208e-11
1067	65190 13 156 156 0 0 1 0 0 0 0
1298	65203 27 203 203 0.000000458 0.000000458 1 65535 65535 65535 4294836225
1299	65230 26 203 203 0.000000458 0.000000458 1 8940 8940 8940 79923600
1300	65256 28 203 203 0.000000458 0.000000458 1 0.3725 0.3725 0.3725 0.13875625
1296	65284 23 203 203 0.000000458 0.000000458 1 3 3 3 9
1303	65307 23 203 203 0.000000458 0.000000458 1 1 1 1 1
1311	65330 76 729 30771 0.0070001912 0.4070016776 3 0 0 0 0
1312	65406 76 729 30771 0.0070001912 0.4070016776 3 0 0 0 0
1313	65482 76 729 30771 0.0070001912 0.4070016776 3 0 0 0 0
1315	65558 24 175 175 0.0000001228 0.0000001228 1 0 0 0 0
1271	65582 27 203 203 0.000000458 0.000000458 1 65535 65535 65535 4294836225
1272	65609 26 203 203 0.000000458 0.000000458 1 8940 8940 8940 79923600
1273	65635 28 203 203 0.000000458 0.000000458 1 0.3725 0.3725 0.3725 0.13875625
1269	65663 23 203 203 0.000000458 0.000000458 1 3 3 3 9
1276	65686 23 203 203 0.000000458 0.000000458 1 1 1 1 1
1284	65709 76 729 30771 0.0070001912 0.4070016776 3 0 0 0 0
1285	65785 76 729 30771 0.0070001912 0.4070016776 3 0 0 0 0
1286	65861 76 729 30771 0.0070001912 0.4070016776 3 0 0 0 0
1288	65937 24 175 175 0.0000001228 0.0000001228 1 0 0 0 0
1325	65961 57 203 89362 0.000000458 1.2070004784 2 65535 65535 131070 8589672450
1326	66018 55 203 89362 0.000000458 1.2070004784 2 8940 8940 17880 159847200
1327	66073 58 203 89362 0.000000458 1.2070004784 2 0.3725 23.84 24.2125 568.48435625
1323	66131 123 203 30771 0.000000458 0.4070016776 5 1 3 7 13
1324	66254 138 280 30771 0.0000006744 0.4070016776 4 1.912e-07 0.2000011992 0.400001894 0.080000594561604
1328	66392 2065 674 15360 0.007 0.2070004784 72 2000 2071 146556 298345836
1332	68457 48 298 312 0.0000007624 0.0000008064 2 1 2 3 5
1331	68505 48 298 312 0.0000007624 0.0000008064 2 1 2 3 5
1333	68553 48 280 290 0.0000006744 0.0000007184 2 1 2 3 5
1334	68601 3872 674 30771 0.007 0.4070016776 144 0 128 8292 700064
1335	72473 3872 674 30771 0.007 0.4070016776 144 0 128 8292 700064
1338	76345 76 729 30771 0.0070001912 0.4070016776 3 0 0 0 0
1339	76421 76 729 30771 0.0070001912 0.4070016776 3 0 0 0 0
1340	76497 76 729 30771 0.0070001912 0.4070016776 3 0 0 0 0
1341	76573 76 729 30771 0.0070001912 0.4070016776 3 0 0 0 0
1342	76649 24 175 175 0.0000001228 0.0000001228 1 0 0 0 0
1345	76673 85 729 30771 0.0070001912 0.4070016776 3 2000 2071 6078 12317090
1347	76758 76 729 30771 0.0070001912 0.4070016776 3 0 0 0 0
1348	76834 76 729 30771 0.0070001912 0.4070016776 3 0 0 0 0
1464	76910 76 729 30771 0.0070001912 0.4070016776 3 0 0 0 0
1465	76986 3246 674 15360 0.007 0.2070004784 144 0 64 4146 175016
1008	80232 3872 674 30771 0.007 0.4070016776 144 0 128 8292 700064
1007	84104 3872 674 30771 0.007 0.4070016776 144 0 128 8292 700064
1009	87976 76 729 30771 0.0070001912 0.4070016776 3 0 0 0 0
1010	88052 76 729 30771 0.0070001912 0.4070016776 3 0 0 0 0
1019	88128 88 729 30771 0.0070001912 0.4070016776 3 65533 65535 196603 12884246539
1020	88216 116 175 30771 0.0000001228 0.4070016776 4 65533 65535 262138 17179082764
1023	88332 13 148 148 0 0 1 0 0 0 0
1165	88345 24 174 174 0.0000001228 0.0000001228 1 0 0 0 0
1433	88369 28 261 261 0.0000006304 0.0000006304 1 65535 65535 65535 4294836225
1434	88397 27 261 261 0.0000006304 0.0000006304 1 8940 8940 8940 79923600
1435	88424 29 261 261 0.0000006304 0.0000006304 1 0.3725 0.3725 0.3725 0.13875625
1431	88453 24 261 261 0.0000006304 0.0000006304 1 3 3 3 9
1438	88477 24 261 261 0.0000006304 0.0000006304 1 1 1 1 1
1450	88501 24 189 189 0.0000003096 0.0000003096 1 0 0 0 0
1406	88525 28 261 261 0.0000006304 0.0000006304 1 65535 65535 65535 4294836225
1407	88553 27 261 261 0.0000006304 0.0000006304 1 8940 8940 8940 79923600
1408	88580 29 261 261 0.0000006304 0.0000006304 1 0.3725 0.3725 0.3725 0.13875625
1404	88609 24 261 261 0.0000006304 0.0000006304 1 3 3 3 9
1411	88633 24 261 261 0.0000006304 0.0000006304 1 1 1 1 1
1423	88657 24 189 189 0.0000003096 0.0000003096 1 0 0 0 0
1119	88681 28 261 261 0.0000006304 0.0000006304 1 65535 65535 65535 4294836225
1120	88709 27 261 261 0.0000006304 0.0000006304 1 8940 8940 8940 79923600
1121	88736 29 261 261 0.0000006304 0.0000006304 1 0.3725 0.3725 0.3725 0.13875625
1117	88765 48 261 326 0.0000006304 0.0000008564 2 1 3 4 10
1118	88813 31 326 326 0.0000008564 0.0000008564 1 2.26e-07 2.26e-07 2.26e-07 5.1076e-14
1123	88844 2072 717 15367 0.0070000972 0.2070015836 72 2000 2071 146556 298345836
1126	90916 46 233 247 0.000000552 0.000000596 2 1 2 3 5
1125	90962 46 233 247 0.000000552 0.000000596 2 1 2 3 5
1127	91008 48 326 332 0.0000008564 0.0000009004 2 1 2 3 5
1136	91056 13 157 157 0 0 1 0 0 0 0
1095	91069 88 717 30764 0.0070000972 0.4070015836 3 65533 65535 196603 12884246539
1099	91157 1935 717 30764 0.0070000972 0.4070015836 75 0 128 146 16588
1104	93092 76 717 30764 0.0070000972 0.4070015836 3 0 0 0 0
1105	93168 76 717 30764 0.0070000972 0.4070015836 3 0 0 0 0
1106	93244 76 717 30764 0.0070000972 0.4070015836 3 0 0 0 0
1107	93320 76 717 30764 0.0070000972 0.4070015836 3 0 0 0 0
1108	93396 76 717 30764 0.0070000972 0.4070015836 3 0 0 0 0
1109	93472 76 717 30764 0.0070000972 0.4070015836 3 0 0 0 0
1110	93548 76 717 30764 0.0070000972 0.4070015836 3 0 0 0 0
1111	93624 79 717 30764 0.0070000972 0.4070015836 3 16 16 48 768
1113	93703 28 189 189 0.0000003096 0.0000003096 1 65535 65535 65535 4294836225
1115	93731 2495 720 15432 0.0070000972 0.2070015836 72 9.72e-08 1.1052e-06 7.21824e-05 7.844462208e-11
1116	96226 13 157 157 0 0 1 0 0 0 0
1195	96239 27 202 202 0.000000458 0.000000458 1 65535 65535 65535 4294836225
1196	96266 26 202 202 0.000000458 0.000000458 1 8940 8940 8940 79923600
1197	96292 28 202 202 0.000000458 0.000000458 1 0.3725 0.3725 0.3725 0.13875625
1193	96320 23 202 202 0.000000458 0.000000458 1 3 3 3 9
1200	96343 23 202 202 0.000000458 0.000000458 1 1 1 1 1
1208	96366 77 3828 34475 0.0570001912 0.4570016776 3 0 0 0 0
1209	96443 77 3828 34475 0.0570001912 0.4570016776 3 0 0 0 0
1210	96520 77 3828 34475 0.0570001912 0.4570016776 3 0 0 0 0
1212	96597 24 174 174 0.0000001228 0.0000001228 1 0 0 0 0
1168	96621 27 202 202 0.000000458 0.000000458 1 65535 65535 65535 4294836225
1169	96648 26 202 202 0.000000458 0.000000458 1 8940 8940 8940 79923600
1170	96674 28 202 202 0.000000458 0.000000458 1 0.3725 0.3725 0.3725 0.13875625
1166	96702 23 202 202 0.000000458 0.000000458 1 3 3 3 9
1173	96725 23 202 202 0.000000458 0.000000458 1 1 1 1 1
1181	96748 77 3828 34475 0.0570001912 0.4570016776 3 0 0 0 0
1182	96825 77 3828 34475 0.0570001912 0.4570016776 3 0 0 0 0
1183	96902 77 3828 34475 0.0570001912 0.4570016776 3 0 0 0 0
1185	96979 24 174 174 0.0000001228 0.0000001228 1 0 0 0 0
1222	97003 57 202 92936 0.000000458 1.2570004784 2 65535 65535 131070 8589672450
1223	97060 55 202 92936 0.000000458 1.2570004784 2 8940 8940 17880 159847200
1224	97115 58 202 92936 0.000000458 1.2570004784 2 0.3725 23.84 24.2125 568.48435625
1220	97173 124 202 34475 0.000000458 0.4570016776 5 1 3 7 13
1221	97297 139 281 34475 0.0000006744 0.4570016776 4 1.912e-07 0.2000011992 0.400001894 0.080000594561604
1225	97436 2073 3762 19341 0.057 0.2570004784 72 2000 2071 146556 298345836
1229	99509 48 299 313 0.0000007624 0.0000008064 2 1 2 3 5
1228	99557 48 299 313 0.0000007624 0.0000008064 2 1 2 3 5
1230	99605 48 281 291 0.0000006744 0.0000007184 2 1 2 3 5
1231	99653 3881 3762 34475 0.057 0.4570016776 144 0 128 8292 700064
1232	103534 3881 3762 34475 0.057 0.4570016776 144 0 128 8292 700064
1235	107415 77 3828 34475 0.0570001912 0.4570016776 3 0 0 0 0
1236	107492 77 3828 34475 0.0570001912 0.4570016776 3 0 0 0 0
1237	107569 77 3828 34475 0.0570001912 0.4570016776 3 0 0 0 0
1238	107646 77 3828 34475 0.0570001912 0.4570016776 3 0 0 0 0
1239	107723 24 174 174 0.0000001228 0.0000001228 1 0 0 0 0
1242	107747 86 3828 34475 0.0570001912 0.4570016776 3 2000 2071 6078 12317090
1244	107833 77 3828 34475 0.0570001912 0.4570016776 3 0 0 0 0
1245	107910 77 3828 34475 0.0570001912 0.4570016776 3 0 0 0 0
1460	107987 77 3828 34475 0.0570001912 0.4570016776 3 0 0 0 0
1461	108064 3262 3762 19341 0.057 0.2570004784 144 0 64 4146 175016
1030	111326 3881 3762 34475 0.057 0.4570016776 144 0 128 8292 700064
1029	115207 3881 3762 34475 0.057 0.4570016776 144 0 128 8292 700064
1031	119088 77 3828 34475 0.0570001912 0.4570016776 3 0 0 0 0
1032	119165 77 3828 34475 0.0570001912 0.4570016776 3 0 0 0 0
1041	119242 89 3828 34475 0.0570001912 0.4570016776 3 65533 65535 196603 12884246539
1042	119331 117 174 34475 0.0000001228 0.4570016776 4 65533 65535 262138 17179082764
1045	119448 13 153 153 0 0 1 0 0 0 0
8	119461 8 0 0 0 0 1 0 0 0 0
9	119469 8 0 0 0 0 1 0 0 0 0
24	119477 9 0 0 0 0 1 0 0 0 0
25	119486 9 0 0 0 0 1 0 0 0 0
35	119495 9 0 0 0 0 1 0 0 0 0
36	119504 9 0 0 0 0 1 0 0 0 0
56	119513 9 0 0 0 0 1 0 0 0 0
57	119522 9 0 0 0 0 1 0 0 0 0
67	119531 9 0 0 0 0 1 0 0 0 0
68	119540 9 0 0 0 0 1 0 0 0 0
78	119549 9 0 0 0 0 1 0 0 0 0
79	119558 9 0 0 0 0 1 0 0 0 0
96	119567 1023646 418 776538 0.002 10 57882 0 0 0 0
98	1143213 415645 1161 776538 0.014 10 23499 0 0 0 0
100	1558858 221876 2275 776533 0.035 10 10291 1 10291 52957486 363341311446
101	1780734 35174 1830 776538 0.027 10 1655 1 1655 1370340 1512398580
106	1815908 488855 1830 776538 0.027 10 23664 58 879 11346404 6378849138
108	2304763 189620 5196 776455 0.076 9.999 10077 5 9 77033 592399
109	2494383 31544 196181 776394 2.709 9.998 1641 6 10 14318 126448
111	2525927 660584 1161 776538 0.014 10 29535 1 29535 436172880 8588389398160
112	3186511 612620 1161 776538 0.014 10 29535 118 703 14978796 8284423820
113	3799131 553550 1161 776538 0.014 10 29535 0 0 0 0
120	4352681 10 0 0 0 0 1 0 0 0 0
121	4352691 10 0 0 0 0 1 0 0 0 0
128	4352701 421 164 34470 0 0.4570015836 18 36 1312 2464 1827680
130	4353122 438 164 34470 0 0.4570015836 18 0 8.8e-08 3.088e-07 1.946112e-14
131	4353560 280 0 283 0 0.0000007124 13 0 2 10 14
132	4353840 828 0 34472 0 0.4570016276 37 0 1 18 18
133	4354668 423 166 34471 0 0.4570015836 18 43 1319 2590 1863058
134	4355091 442 171 30769 0.0000001228 0.4070016776 18 43 1319 2590 1863058
137	4355533 423 166 34471 0 0.4570015836 18 36 1312 2464 1827680
138	4355956 442 171 30769 0.0000001228 0.4070016776 18 36 1312 2464 1827680
141	4356398 1792 3821 19540 0.0570000972 0.2570015836 72 2 2 144 288
154	4358190 257353 4135 776443 0.062 9.999 13805 0 0 0 0
156	4615543 20375 6987 776476 0.098 10 1087 0 0 0 0
157	4635918 341 243024 276888 3.303 3.707 18 0 0 0 0
169	4636259 10662 6987 776443 0.098 9.999 520 1 520 135460 47004620
170	4646921 10770 6987 776443 0.098 9.999 520 141 423 117705 30077761
171	4657691 9730 6987 776443 0.098 9.999 520 0 0 0 0
173	4667421 551 225309 243002 3.102 3.302 29 2 2 58 116
178	4667972 10 0 0 0 0 1 0 0 0 0
179	4667982 10 0 0 0 0 1 0 0 0 0
186	4667992 422 165 30766 0 0.4070015836 18 36 1312 2464 1827680
188	4668414 439 165 30766 0 0.4070015836 18 0 8.8e-08 3.088e-07 1.946112e-14
189	4668853 280 0 282 0 0.0000007124 13 0 2 10 14
190	4669133 830 0 30768 0 0.4070016276 37 0 1 18 18
191	4669963 424 167 30767 0 0.4070015836 18 43 1319 2590 1863058
192	4670387 441 170 34473 0.0000001228 0.4570016776 18 43 1319 2590 1863058
195	4670828 424 167 30767 0 0.4070015836 18 36 1312 2464 1827680
196	4671252 441 170 34473 0.0000001228 0.4570016776 18 36 1312 2464 1827680
199	4671693 1784 722 15559 0.0070000972 0.2070015836 72 2 2 144 288
205	4673477 85 6119 697346 0.088660440601 9.088660440601 3 44 44 132 5808
208	4673562 85 6119 697346 0.088660440601 9.088660440601 3 45 45 135 6075
209	4673647 85 6122 697349 0.088660440601 9.088660440601 3 45 45 135 6075
212	4673732 37413 6126 776398 0.089 9.999 1983 0 0 0 0
218	4711145 42255 6126 776398 0.089 9.999 1983 1 1983 1967136 2601209504
231	4753400 10 0 0 0 0 1 1 1 1 1
237	4753410 85 4740 695664 0.070868452201 9.070868452201 3 44 44 132 5808
240	4753495 85 4740 695664 0.070868452201 9.070868452201 3 45 45 135 6075
241	4753580 546 4743 697461 0.070868452201 9.09 29 0 45 314 7750
242	4754126 46439 3024 697393 0.046 9.089 2476 0 0 0 0
243	4800565 458 5097 697457 0.075 9.09 26 0 0 0 0
244	4801023 45865 3024 697051 0.046 9.086 2444 0 0 0 0
248	4846888 102 3148 4944 0.048 0.073 6 1 6 21 91
263	4846990 10 0 0 0 0 1 1 1 1 1
269	4847000 85 6685 697994 0.095104090585 9.095104090585 3 44 44 132 5808
272	4847085 85 6685 697994 0.095104090585 9.095104090585 3 45 45 135 6075
273	4847170 137 6688 698466 0.095104090585 9.1 6 45 47 276 12702
274	4847307 110 6992 698402 0.098 9.099 6 0 0 0 0
275	4847417 49 7134 698462 0.1 9.1 3 0 0 0 0
276	4847466 55 6720 698029 0.096 9.096 3 0 0 0 0
295	4847521 10 0 0 0 0 1 1 1 1 1
301	4847531 85 1836 691994 0.027262016546 9.027262016546 3 44 44 132 5808
304	4847616 85 1836 691994 0.027262016546 9.027262016546 3 45 45 135 6075
305	4847701 163 1839 692749 0.027262016546 9.037 7 19 47 278 11754
306	4847864 145 1976 692679 0.03 9.036 8 0 0 0 0
307	4848009 74 2068 692745 0.032 9.037 4 0 0 0 0
308	4848083 74 1845 692440 0.028 9.033 4 0 0 0 0
327	4848157 10 0 0 0 0 1 1 1 1 1
333	4848167 85 3909 694631 0.058969033093 9.058969033093 3 44 44 132 5808
336	4848252 85 3909 694631 0.058969033093 9.058969033093 3 45 45 135 6075
337	4848337 37583 3912 776277 0.058969033093 9.998 1991 0 45 135 6075
338	4885920 74995 4080 776241 0.061 9.997 3976 0 0 0 0
339	4960915 37498 4229 776273 0.063 9.998 1988 0 0 0 0
340	4998413 37515 3919 776403 0.059 9.999 1989 0 0 0 0
359	5035928 10 0 0 0 0 1 1 1 1 1
365	5035938 85 5521 696632 0.080385986073 9.080385986073 3 44 44 132 5808
368	5036023 85 5521 696632 0.080385986073 9.080385986073 3 45 45 135 6075
369	5036108 85 5524 696635 0.080385986073 9.080385986073 3 45 45 135 6075
372	5036193 26296 223367 776110 3.081 9.996 1384 0 0 0 0
379	5062489 29341 223367 776110 3.081 9.996 1384 1 1384 958420 884621660
391	5091830 163 0 7552 0 0.105 10 1 2 19 37
397	5091993 85 4266 695073 0.063074826114 9.063074826114 3 44 44 132 5808
400	5092078 85 4266 695073 0.063074826114 9.063074826114 3 45 45 135 6075
401	5092163 85 4269 695076 0.063074826114 9.063074826114 3 45 45 135 6075
404	5092248 37498 4279 776406 0.064 9.999 1988 0 0 0 0
410	5129746 10706 4279 195374 0.064 2.699 528 1 528 139656 49205464
411	5140452 31013 195767 776406 2.704 9.999 1460 1 1460 1066530 1038444710
423	5171465 10 0 0 0 0 1 1 1 1 1
429	5171475 85 2158 692431 0.032193433337 9.032193433337 3 44 44 132 5808
432	5171560 85 2158 692431 0.032193433337 9.032193433337 3 45 45 135 6075
433	5171645 85 2161 692434 0.032193433337 9.032193433337 3 45 45 135 6075
434	5171730 12557 195844 471584 2.705 6.105 681 0 0 0 0
436	5184287 50157 2171 776280 0.033 9.998 2675 0 0 0 0
442	5234444 25337 2171 471381 0.033 6.103 1215 1 1215 738720 598609440
443	5259781 16251 471767 776280 6.108 9.998 779 1 779 303810 157879930
455	5276032 10 0 0 0 0 1 1 1 1 1
461	5276042 85 2723 693225 0.042654495104 9.042654495104 3 44 44 132 5808
464	5276127 85 2723 693225 0.042654495104 9.042654495104 3 45 45 135 6075
465	5276212 85 2726 693228 0.042654495104 9.042654495104 3 45 45 135 6075
468	5276297 37566 2795 776282 0.043 9.998 1992 0 0 0 0
474	5313863 42435 2795 776282 0.043 9.998 1992 1 1992 1985028 2636778860
487	5356298 10 0 0 0 0 1 1 1 1 1
493	5356308 85 2731 693232 0.042742808261 9.042742808261 3 44 44 132 5808
496	5356393 85 2731 693232 0.042742808261 9.042742808261 3 45 45 135 6075
497	5356478 24280 2734 717511 0.042742808261 9.307 1291 0 45 298 8998
498	5380758 92850 2987 717430 0.045 9.306 4982 0 0 0 0
499	5473608 24191 3050 717507 0.047 9.307 1288 0 0 0 0
500	5497799 69379 2797 717199 0.043 9.303 3694 0 0 0 0
519	5567178 10 0 0 0 0 1 1 1 1 1
525	5567188 85 2433 692808 0.037255783586 9.037255783586 3 44 44 132 5808
528	5567273 85 2433 692808 0.037255783586 9.037255783586 3 45 45 135 6075
529	5567358 240 2436 694522 0.037255783586 9.057 11 8 45 286 9336
530	5567598 73990 2608 776512 0.04 10 3981 0 0 0 0
531	5641588 148 2689 694518 0.042 9.057 8 0 0 0 0
532	5641736 73846 2450 776512 0.038 10 3973 0 0 0 0
551	5715582 10 0 0 0 0 1 1 1 1 1
557	5715592 85 4609 695523 0.068596436554 9.068596436554 3 44 44 132 5808
560	5715677 85 4609 695523 0.068596436554 9.068596436554 3 45 45 135 6075
561	5715762 4991 4612 709288 0.068596436554 9.213 261 0 45 245 7611
562	5720753 9804 222508 709238 3.071 9.212 516 0 0 0 0
563	5730557 4902 222670 709284 3.073 9.213 258 0 0 0 0
564	5735459 4902 222342 708863 3.069 9.209 258 0 0 0 0
583	5740361 163 0 7553 0 0.105 10 1 2 19 37
589	5740524 85 5979 697194 0.086132885579 9.086132885579 3 44 44 132 5808
592	5740609 85 5979 697194 0.086132885579 9.086132885579 3 45 45 135 6075
593	5740694 13710 5982 697197 0.086132885579 9.086132885579 730 0 45 245 7453
594	5754404 117604 2228 471805 0.034 6.108 6306 0 0 0 0
595	5872008 13620 6307 448556 0.091 5.811 727 0 0 0 0
596	5885628 107598 2228 776217 0.034 9.997 5746 0 0 0 0
600	5993226 279 2341 6065 0.036 0.087 16 1 16 136 1496
603	5993505 3735 697217 776217 9.087 9.997 183 1 183 16836 2059604
615	5997240 10 0 0 0 0 1 1 1 1 1
621	5997250 85 4494 695392 0.067512416122 9.067512416122 3 44 44 132 5808
624	5997335 85 4494 695392 0.067512416122 9.067512416122 3 45 45 135 6075
625	5997420 788 4497 709145 0.067512416122 9.212 40 0 45 290 8814
626	5998208 1369 4735 709078 0.07 9.211 74 0 0 0 0
627	5999577 695 4843 709141 0.072 9.212 37 0 0 0 0
628	6000272 695 4520 708804 0.068 9.208 37 0 0 0 0
647	6000967 10 0 0 0 0 1 1 1 1 1
653	6000977 85 2827 693321 0.043019576671 9.043019576671 3 44 44 132 5808
656	6001062 85 2827 693321 0.043019576671 9.043019576671 3 45 45 135 6075
657	6001147 85 2830 693324 0.043019576671 9.043019576671 3 45 45 135 6075
660	6001232 26499 2847 776415 0.044 9.999 1395 0 0 0 0
667	6027731 29577 2847 776415 0.044 9.999 1395 1 1395 973710 905874870
679	6057308 163 0 7554 0 0.105 10 1 2 19 37
685	6057471 85 4795 695749 0.071731106779 9.071731106779 3 44 44 132 5808
688	6057556 85 4795 695749 0.071731106779 9.071731106779 3 45 45 135 6075
689	6057641 15190 4798 776125 0.071731106779 9.996 798 0 45 191 6467
690	6072831 95061 1970 776530 0.03 10 5068 0 0 0 0
691	6167892 15105 464144 776121 6.011 9.996 795 0 0 0 0
692	6182997 102665 1970 776530 0.03 10 5459 0 0 0 0
698	6285662 24736 4849 463443 0.072 6.002 1187 1 1187 705078 558186750
711	6310398 10 0 0 0 0 1 1 1 1 1
717	6310408 84 997 690778 0.012314120021 9.012314120021 3 44 44 132 5808
720	6310492 84 997 690778 0.012314120021 9.012314120021 3 45 45 135 6075
721	6310576 3922 1000 776227 0.012314120021 9.997 205 0 45 235 9277
722	6314498 26461 1194 776536 0.015 10 1399 0 0 0 0
723	6340959 3834 1244 776223 0.017 9.997 202 0 0 0 0
724	6344793 22739 1068 776383 0.013 9.998 1197 0 0 0 0
743	6367532 163 0 7555 0 0.105 10 1 2 19 37
749	6367695 85 6178 697422 0.089070481334 9.089070481334 3 44 44 132 5808
752	6367780 85 6178 697422 0.089070481334 9.089070481334 3 45 45 135 6075
753	6367865 14886 6181 776423 0.089070481334 9.999 782 0 45 135 6075
754	6382751 59204 471645 776389 6.106 9.998 3116 0 0 0 0
755	6441955 14801 471855 776419 6.109 9.999 779 0 0 0 0
756	6456756 65904 6231 776495 0.09 10 3541 0 0 0 0
762	6522660 24420 6231 471152 0.09 6.1 1203 1 1203 724206 581054614
775	6547080 10 0 0 0 0 1 1 1 1 1
781	6547090 85 2234 692549 0.034967919982 9.034967919982 3 44 44 132 5808
784	6547175 85 2234 692549 0.034967919982 9.034967919982 3 45 45 135 6075
785	6547260 161 2237 692552 0.034967919982 9.034967919982 7 16 45 233 8765
786	6547421 77456 2422 776524 0.037 10 4164 0 0 0 0
787	6624877 72 2545 220341 0.039 3.044 4 0 0 0 0
788	6624949 80960 2258 776524 0.035 10 4354 0 0 0 0
794	6705909 3858 692576 776497 9.035 10 194 1 194 18915 2452645
807	6709767 10 0 0 0 0 1 1 1 1 1
813	6709777 85 7101 698432 0.099035166858 9.099035166858 3 44 44 132 5808
816	6709862 85 7101 698432 0.099035166858 9.099035166858 3 45 45 135 6075
817	6709947 655 7104 705596 0.099035166858 9.174 33 5 45 285 6825
818	6710602 95852 1798 776167 0.026 9.996 5048 0 0 0 0
819	6806454 570 225459 705592 3.104 9.174 30 0 0 0 0
820	6807024 95041 1798 776167 0.026 9.996 5005 0 0 0 0
825	6902065 225 1871 3476 0.028 0.053 13 1 13 91 819
839	6902290 163 0 7556 0 0.105 10 1 2 19 37
845	6902453 85 1876 692054 0.028303043828 9.028303043828 3 44 44 132 5808
848	6902538 85 1876 692054 0.028303043828 9.028303043828 3 45 45 135 6075
849	6902623 85 1879 692057 0.028303043828 9.028303043828 3 45 45 135 6075
850	6902708 65943 1715 776527 0.025 10 3577 0 0 0 0
852	6968651 92550 1715 776527 0.025 10 4978 0 0 0 0
859	7061201 29703 1902 776426 0.029 9.999 1401 1 1401 982101 917609701
871	7090904 163 0 7557 0 0.105 10 1 2 19 37
877	7091067 85 1577 691630 0.023785309079 9.023785309079 3 44 44 132 5808
880	7091152 85 1577 691630 0.023785309079 9.023785309079 3 45 45 135 6075
881	7091237 85 1580 691633 0.023785309079 9.023785309079 3 45 45 135 6075
884	7091322 26643 1629 776428 0.024 9.999 1403 0 0 0 0
891	7117965 29745 1629 776428 0.024 9.999 1403 1 1403 984906 921543714
903	7147710 163 0 7558 0 0.105 10 1 2 19 37
909	7147873 85 2935 693458 0.044464713358 9.044464713358 3 44 44 132 5808
912	7147958 85 2935 693458 0.044464713358 9.044464713358 3 45 45 135 6075
913	7148043 85 2938 693461 0.044464713358 9.044464713358 3 45 45 135 6075
916	7148128 36451 2965 776502 0.045 10 1992 0 0 0 0
922	7184579 41320 2965 776502 0.045 10 1992 1 1992 1985028 2636778860
935	7225899 10 0 0 0 0 1 1 1 1 1
941	7225909 85 6617 697913 0.094999797184 9.094999797184 3 44 44 132 5808
944	7225994 85 6617 697913 0.094999797184 9.094999797184 3 45 45 135 6075
945	7226079 447 6620 697916 0.094999797184 9.094999797184 23 0 45 261 6957
946	7226526 79277 2923 776440 0.044 9.999 4204 0 0 0 0
947	7305803 362 7064 229216 0.099 3.144 20 0 0 0 0
948	7306165 75212 2923 776504 0.044 10 3994 0 0 0 0
952	7381377 3881 3038 776173 0.046 9.996 191 1 191 18336 2340896
967	7385258 10 0 0 0 0 1 1 1 1 1
973	7385268 85 6781 698110 0.096481279186 9.096481279186 3 44 44 132 5808
976	7385353 85 6781 698110 0.096481279186 9.096481279186 3 45 45 135 6075
977	7385438 105 6784 698113 0.096481279186 9.096481279186 4 45 47 182 8284
978	7385543 28327 7092 776243 0.099 9.997 1492 0 0 0 0
979	7413870 19 243182 243182 3.305 3.305 1 0 0 0 0
980	7413889 31101 6843 776243 0.097 9.997 1637 0 0 0 0
986	7444990 3966 227182 776235 3.122 9.997 194 1 194 18915 2452645
999	7448956 163 0 7559 0 0.105 10 1 2 19 37
1479	7449119 93 994 690775 0.012314120021 9.012314120021 3 7504 7504 22512 168930048
1480	7449212 93 994 690775 0.012314120021 9.012314120021 3 7504 7504 22512 168930048
1482	7449305 84 994 690775 0.012314120021 9.012314120021 3 0 0 0 0
1493	7449389 84 994 690775 0.012314120021 9.012314120021 3 0 0 0 0
1503	7449473 94 1574 691627 0.023785309079 9.023785309079 3 7504 7504 22512 168930048
1504	7449567 94 1574 691627 0.023785309079 9.023785309079 3 7504 7504 22512 168930048
1506	7449661 85 1574 691627 0.023785309079 9.023785309079 3 0 0 0 0
1517	7449746 85 1574 691627 0.023785309079 9.023785309079 3 0 0 0 0
1527	7449831 94 1833 691991 0.027262016546 9.027262016546 3 7504 7504 22512 168930048
1528	7449925 94 1833 691991 0.027262016546 9.027262016546 3 7504 7504 22512 168930048
1530	7450019 85 1833 691991 0.027262016546 9.027262016546 3 0 0 0 0
1541	7450104 85 1833 691991 0.027262016546 9.027262016546 3 0 0 0 0
1551	7450189 94 1873 692051 0.028303043828 9.028303043828 3 7504 7504 22512 168930048
1552	7450283 94 1873 692051 0.028303043828 9.028303043828 3 7504 7504 22512 168930048
1554	7450377 85 1873 692051 0.028303043828 9.028303043828 3 0 0 0 0
1565	7450462 85 1873 692051 0.028303043828 9.028303043828 3 0 0 0 0
1575	7450547 94 2155 692428 0.032193433337 9.032193433337 3 7504 7504 22512 168930048
1576	7450641 94 2155 692428 0.032193433337 9.032193433337 3 7504 7504 22512 168930048
1578	7450735 85 2155 692428 0.032193433337 9.032193433337 3 0 0 0 0
1589	7450820 85 2155 692428 0.032193433337 9.032193433337 3 0 0 0 0
1599	7450905 94 2231 692546 0.034967919982 9.034967919982 3 7504 7504 22512 168930048
1600	7450999 94 2231 692546 0.034967919982 9.034967919982 3 7504 7504 22512 168930048
1602	7451093 85 2231 692546 0.034967919982 9.034967919982 3 0 0 0 0
1613	7451178 85 2231 692546 0.034967919982 9.034967919982 3 0 0 0 0
1623	7451263 94 2430 692805 0.037255783586 9.037255783586 3 7504 7504 22512 168930048
1624	7451357 94 2430 692805 0.037255783586 9.037255783586 3 7504 7504 22512 168930048
1626	7451451 85 2430 692805 0.037255783586 9.037255783586 3 0 0 0 0
1637	7451536 85 2430 692805 0.037255783586 9.037255783586 3 0 0 0 0
1647	7451621 94 2720 693222 0.042654495104 9.042654495104 3 7504 7504 22512 168930048
1648	7451715 94 2720 693222 0.042654495104 9.042654495104 3 7504 7504 22512 168930048
1650	7451809 85 2720 693222 0.042654495104 9.042654495104 3 0 0 0 0
1661	7451894 85 2720 693222 0.042654495104 9.042654495104 3 0 0 0 0
1671	7451979 94 2728 693229 0.042742808261 9.042742808261 3 7504 7504 22512 168930048
1672	7452073 94 2728 693229 0.042742808261 9.042742808261 3 7504 7504 22512 168930048
1674	7452167 85 2728 693229 0.042742808261 9.042742808261 3 0 0 0 0
1685	7452252 85 2728 693229 0.042742808261 9.042742808261 3 0 0 0 0
1695	7452337 94 2824 693318 0.043019576671 9.043019576671 3 7504 7504 22512 168930048
1696	7452431 94 2824 693318 0.043019576671 9.043019576671 3 7504 7504 22512 168930048
1698	7452525 85 2824 693318 0.043019576671 9.043019576671 3 0 0 0 0
1709	7452610 85 2824 693318 0.043019576671 9.043019576671 3 0 0 0 0
1719	7452695 94 2932 693455 0.044464713358 9.044464713358 3 7504 7504 22512 168930048
1720	7452789 94 2932 693455 0.044464713358 9.044464713358 3 7504 7504 22512 168930048
1722	7452883 85 2932 693455 0.044464713358 9.044464713358 3 0 0 0 0
1733	7452968 85 2932 693455 0.044464713358 9.044464713358 3 0 0 0 0
1743	7453053 94 3906 694628 0.058969033093 9.058969033093 3 7504 7504 22512 168930048
1744	7453147 94 3906 694628 0.058969033093 9.058969033093 3 7504 7504 22512 168930048
1746	7453241 85 3906 694628 0.058969033093 9.058969033093 3 0 0 0 0
1757	7453326 85 3906 694628 0.058969033093 9.058969033093 3 0 0 0 0
1767	7453411 94 4263 695070 0.063074826114 9.063074826114 3 7504 7504 22512 168930048
1768	7453505 94 4263 695070 0.063074826114 9.063074826114 3 7504 7504 22512 168930048
1770	7453599 85 4263 695070 0.063074826114 9.063074826114 3 0 0 0 0
1781	7453684 85 4263 695070 0.063074826114 9.063074826114 3 0 0 0 0
1791	7453769 94 4491 695389 0.067512416122 9.067512416122 3 7504 7504 22512 168930048
1792	7453863 94 4491 695389 0.067512416122 9.067512416122 3 7504 7504 22512 168930048
1794	7453957 85 4491 695389 0.067512416122 9.067512416122 3 0 0 0 0
1805	7454042 85 4491 695389 0.067512416122 9.067512416122 3 0 0 0 0
1815	7454127 94 4606 695520 0.068596436554 9.068596436554 3 7504 7504 22512 168930048
1816	7454221 94 4606 695520 0.068596436554 9.068596436554 3 7504 7504 22512 168930048
1818	7454315 85 4606 695520 0.068596436554 9.068596436554 3 0 0 0 0
1829	7454400 85 4606 695520 0.068596436554 9.068596436554 3 0 0 0 0
1839	7454485 94 4737 695661 0.070868452201 9.070868452201 3 7504 7504 22512 168930048
1840	7454579 94 4737 695661 0.070868452201 9.070868452201 3 7504 7504 22512 168930048
1842	7454673 85 4737 695661 0.070868452201 9.070868452201 3 0 0 0 0
1853	7454758 85 4737 695661 0.070868452201 9.070868452201 3 0 0 0 0
1863	7454843 94 4792 695746 0.071731106779 9.071731106779 3 7504 7504 22512 168930048
1864	7454937 94 4792 695746 0.071731106779 9.071731106779 3 7504 7504 22512 168930048
1866	7455031 85 4792 695746 0.071731106779 9.071731106779 3 0 0 0 0
1877	7455116 85 4792 695746 0.071731106779 9.071731106779 3 0 0 0 0
1887	7455201 94 5518 696629 0.080385986073 9.080385986073 3 7504 7504 22512 168930048
1888	7455295 94 5518 696629 0.080385986073 9.080385986073 3 7504 7504 22512 168930048
1890	7455389 85 5518 696629 0.080385986073 9.080385986073 3 0 0 0 0
1901	7455474 85 5518 696629 0.080385986073 9.080385986073 3 0 0 0 0
1911	7455559 94 5976 697191 0.086132885579 9.086132885579 3 7504 7504 22512 168930048
1912	7455653 94 5976 697191 0.086132885579 9.086132885579 3 7504 7504 22512 168930048
1914	7455747 85 5976 697191 0.086132885579 9.086132885579 3 0 0 0 0
1925	7455832 85 5976 697191 0.086132885579 9.086132885579 3 0 0 0 0
1935	7455917 94 6116 697343 0.088660440601 9.088660440601 3 7504 7504 22512 168930048
1936	7456011 94 6116 697343 0.088660440601 9.088660440601 3 7504 7504 22512 168930048
1938	7456105 85 6116 697343 0.088660440601 9.088660440601 3 0 0 0 0
1949	7456190 85 6116 697343 0.088660440601 9.088660440601 3 0 0 0 0
1959	7456275 94 6175 697419 0.089070481334 9.089070481334 3 7504 7504 22512 168930048
1960	7456369 94 6175 697419 0.089070481334 9.089070481334 3 7504 7504 22512 168930048
1962	7456463 85 6175 697419 0.089070481334 9.089070481334 3 0 0 0 0
1973	7456548 85 6175 697419 0.089070481334 9.089070481334 3 0 0 0 0
1983	7456633 94 6614 697910 0.094999797184 9.094999797184 3 7504 7504 22512 168930048
1984	7456727 94 6614 697910 0.094999797184 9.094999797184 3 7504 7504 22512 168930048
1986	7456821 85 6614 697910 0.094999797184 9.094999797184 3 0 0 0 0
1997	7456906 85 6614 697910 0.094999797184 9.094999797184 3 0 0 0 0
2007	7456991 94 6682 697991 0.095104090585 9.095104090585 3 7504 7504 22512 168930048
2008	7457085 94 6682 697991 0.095104090585 9.095104090585 3 7504 7504 22512 168930048
2010	7457179 85 6682 697991 0.095104090585 9.095104090585 3 0 0 0 0
2021	7457264 85 6682 697991 0.095104090585 9.095104090585 3 0 0 0 0
2031	7457349 94 6778 698107 0.096481279186 9.096481279186 3 7504 7504 22512 168930048
2032	7457443 94 6778 698107 0.096481279186 9.096481279186 3 7504 7504 22512 168930048
2034	7457537 85 6778 698107 0.096481279186 9.096481279186 3 0 0 0 0
2045	7457622 85 6778 698107 0.096481279186 9.096481279186 3 0 0 0 0
2055	7457707 94 7098 698429 0.099035166858 9.099035166858 3 7504 7504 22512 168930048
2056	7457801 94 7098 698429 0.099035166858 9.099035166858 3 7504 7504 22512 168930048
2058	7457895 85 7098 698429 0.099035166858 9.099035166858 3 0 0 0 0
2069	7457980 85 7098 698429 0.099035166858 9.099035166858 3 0 0 0 0
