version 2
run CAIN-39-20200508-15:48:42-11290
attr configname CAIN
attr datetime 20200508-15:48:42
attr dist 200
attr experiment CAIN
attr extAllocType "\"RANDOM_ALLOC\""
attr inifile omnetpp.ini
attr iterationvars "$numUe=20, $pwr=-50, $dist=200, $mob=\"./movements/RPGM-0.0.movements\", $extAllocType=\"RANDOM_ALLOC\""
attr iterationvars2 "$numUe=20, $pwr=-50, $dist=200, $mob=\"./movements/RPGM-0.0.movements\", $extAllocType=\"RANDOM_ALLOC\", $repetition=4"
attr measurement "$numUe=20, $pwr=-50, $dist=200, $mob=\"./movements/RPGM-0.0.movements\", $extAllocType=\"RANDOM_ALLOC\""
attr mob "\"./movements/RPGM-0.0.movements\""
attr network lte.simulations.networks.CAIN
attr numUe 20
attr processid 11290
attr pwr -50
attr repetition 4
attr replication #4
attr resultdir results
attr runnumber 39
attr seedset 4
param **.**.amcMode "\"AUTO\""
param **.amcMode "\"D2D\""
param **.cainNetwork true
param **.channelControl.alpha 1.0
param **.channelControl.carrierFrequency 2100e+6Hz
param **.channelControl.pMax 10W
param **.d2dCqi 7
param **.deployer.numRbDl 50
param **.deployer.numRbUl 50
param **.distThresh ${dist=200}
param **.fbDelay 1
param **.feedbackComputation "xmldoc(\"config_channel.xml\")"
param **.mobility.constraintAreaMaxX 1000m
param **.mobility.constraintAreaMaxY 1000m
param **.mobility.constraintAreaMaxZ 0m
param **.mobility.constraintAreaMinX 0m
param **.mobility.constraintAreaMinY 0m
param **.mobility.constraintAreaMinZ 0m
param **.nic.phy.channelModel "xmldoc(\"config_channel.xml\")"
param **.numBands 50
param **.pwrThresh "${pwr= -50}"
param **.qtdThresh 3
param **.rbAllocationType "\"localized\""
param **.routingRecorder.enabled false
param **.tcpApp[*].tClose -1s
param **.ueD2DTx[*].mobility.changeAngleBy "normal(0deg, 30deg)"
param **.ueD2DTx[*].mobility.changeInterval "normal(5s, 0.1s)"
param **.ueD2DTx[*].mobility.nodeId -1
param **.ueD2DTx[*].mobility.speed "normal(2mps, 0.01mps)"
param **.ueD2DTx[*].mobility.traceFile "${mob=\"./movements/RWP-0.0.movements\",\"./movements/RWP-0.5.movements\",\"./movements/RPGM-0.0.movements\",\"./movements/RPGM-0.5.movements\",\"./movements/RWPRPGM-0.0.movements\",\"./movements/RWPRPGM-0.5.movements\"}"
param **.ueD2DTx[*].mobilityType "\"BonnMotionMobility\""
param **.usePreconfiguredTxParams false
param *.eNodeB*.numX2Apps 1
param *.eNodeB*.x2App[*].server.localPort "5000 + ancestorIndex(1)"
param *.eNodeB.d2dCapable false
param *.eNodeB.mobility.initFromDisplayString false
param *.eNodeB.mobility.initialX 300m
param *.eNodeB.mobility.initialY 300m
param *.eNodeB.nic.phy.enableD2DCqiReporting true
param *.eNodeB.txPower 19952.62315mw
param *.eNodeB.x2App[0].client.connectAddress "\"eNodeB1%x2ppp0\""
param *.eNodeB1.d2dCapable true
param *.eNodeB1.mobility.initFromDisplayString false
param *.eNodeB1.mobility.initialX 700m
param *.eNodeB1.mobility.initialY 300m
param *.eNodeB1.nic.phy.enableD2DCqiReporting true
param *.eNodeB1.txPower 19952.62315mw
param *.eNodeB1.x2App[0].client.connectAddress "\"eNodeB%x2ppp0\""
param *.extCell[*].bandAllocationType "${extAllocType=\"FULL_ALLOC\",\"RANDOM_ALLOC\",\"CONTIGUOUS_ALLOC\"}"
param *.extCell[*].bandUtilization 0.5
param *.extCell[*].txDirection "\"ANISOTROPIC\""
param *.extCell[*].txPower 20
param *.extCell[0].position_x 100m
param *.extCell[0].position_y 600m
param *.extCell[0].txAngle 315
param *.extCell[1].position_x 600m
param *.extCell[1].position_y 600m
param *.extCell[1].txAngle 225
param *.numExtCells 2
param *.numUeCell 0
param *.numUeD2DRx 1
param *.numUeD2DTx 1
param *.ue*.macCellId 1
param *.ue*.masterId 1
param *.ue*.mobility.initFromDisplayString false
param *.ue*[0].macCellId 1
param *.ue*[0].masterId 1
param *.ue*[0].mobility.initFromDisplayString false
param *.ueD2D*.numTcpApps 1
param *.ueD2D*[*].d2dCapable true
param *.ueD2D*[0].d2dCapable false
param *.ueD2D*[0].numTcpApps 1
param *.ueD2DRx[0].mobility.initialX 310m
param *.ueD2DRx[0].mobility.initialY 350m
param *.ueD2DRx[0].tcpApp[*].localPort 1000
param *.ueD2DRx[0].tcpApp[*].typename "\"TCPSinkApp\""
param *.ueD2DTx*.nic.d2dPeerAddresses "\"ueD2DTx[1]\""
param *.ueD2DTx*.tcpApp[*].connectAddress "\"ueD2DTx[0]\""
param *.ueD2DTx*.tcpApp[*].localAddress "\"ueD2DTx\""
param *.ueD2DTx*.tcpApp[*].localPort 1000
param *.ueD2DTx*.tcpApp[*].sendBytes 1GiB
param *.ueD2DTx*.tcpApp[*].typename "\"TCPSessionApp\""
param *.ueD2DTx*.tcpApp[0].active true
param *.ueD2DTx*.tcpApp[0].connectPort 1000
param *.ueD2DTx*.tcpApp[0].tOpen uniform(0.010s,0.1s)
param *.ueD2DTx*.tcpApp[0].tSend uniform(0.15s,0.5s)
param *.ueD2DTx[0].mobility.initialX 290m
param *.ueD2DTx[0].mobility.initialY 350m
param *.ueD2DTx[0].tcpApp[*].localPort 1000
param *.ueD2DTx[0].tcpApp[*].sendBytes 1GiB
param *.ueD2DTx[0].tcpApp[*].typename "\"TCPSessionApp\""
param *.ueD2DTx[0].tcpApp[0].active true
param *.ueD2DTx[0].tcpApp[0].connectAddress "\"ueD2DRx[0]\""
param *.ueD2DTx[0].tcpApp[0].connectPort 1000
param *.ueD2DTx[0].tcpApp[0].localAddress "\"ueD2DTx[0]\""
param *.ueD2DTx[0].tcpApp[0].tOpen uniform(0.010s,0.1s)
param *.ueD2DTx[0].tcpApp[0].tSend uniform(0.15s,0.5s)
param *.ueD2DTx[1].mobility.initialX 690m
param *.ueD2DTx[1].mobility.initialY 250m

vector 8  CAIN.server.ppp[0].queue  queueLength:vector  ETV
attr interpolationmode  sample-hold
attr title  "queue length, vector"
vector 9  CAIN.server.ppp[0].ppp  txState:vector  ETV
attr interpolationmode  sample-hold
attr title  "tx state, vector"
vector 24  CAIN.router.ppp[0].queue  queueLength:vector  ETV
attr interpolationmode  sample-hold
attr title  "queue length, vector"
vector 25  CAIN.router.ppp[0].ppp  txState:vector  ETV
attr interpolationmode  sample-hold
attr title  "tx state, vector"
vector 35  CAIN.router.ppp[1].queue  queueLength:vector  ETV
attr interpolationmode  sample-hold
attr title  "queue length, vector"
vector 36  CAIN.router.ppp[1].ppp  txState:vector  ETV
attr interpolationmode  sample-hold
attr title  "tx state, vector"
vector 56  CAIN.pgw.ppp[0].queue  queueLength:vector  ETV
attr interpolationmode  sample-hold
attr title  "queue length, vector"
vector 57  CAIN.pgw.ppp[0].ppp  txState:vector  ETV
attr interpolationmode  sample-hold
attr title  "tx state, vector"
vector 67  CAIN.pgw.ppp[1].queue  queueLength:vector  ETV
attr interpolationmode  sample-hold
attr title  "queue length, vector"
vector 68  CAIN.pgw.ppp[1].ppp  txState:vector  ETV
attr interpolationmode  sample-hold
attr title  "tx state, vector"
vector 78  CAIN.pgw.pppInterface.queue  queueLength:vector  ETV
attr interpolationmode  sample-hold
attr title  "queue length, vector"
vector 79  CAIN.pgw.pppInterface.ppp  txState:vector  ETV
attr interpolationmode  sample-hold
attr title  "tx state, vector"
vector 120  CAIN.eNodeB.pppIf.queue  queueLength:vector  ETV
attr interpolationmode  sample-hold
attr title  "queue length, vector"
vector 121  CAIN.eNodeB.pppIf.ppp  txState:vector  ETV
attr interpolationmode  sample-hold
attr title  "tx state, vector"
vector 131  CAIN.eNodeB.x2ppp[0].queue  queueLength:vector  ETV
attr interpolationmode  sample-hold
attr title  "queue length, vector"
vector 132  CAIN.eNodeB.x2ppp[0].ppp  txState:vector  ETV
attr interpolationmode  sample-hold
attr title  "tx state, vector"
vector 178  CAIN.eNodeB1.pppIf.queue  queueLength:vector  ETV
attr interpolationmode  sample-hold
attr title  "queue length, vector"
vector 179  CAIN.eNodeB1.pppIf.ppp  txState:vector  ETV
attr interpolationmode  sample-hold
attr title  "tx state, vector"
vector 189  CAIN.eNodeB1.x2ppp[0].queue  queueLength:vector  ETV
attr interpolationmode  sample-hold
attr title  "queue length, vector"
vector 190  CAIN.eNodeB1.x2ppp[0].ppp  txState:vector  ETV
attr interpolationmode  sample-hold
attr title  "tx state, vector"
vector 231  CAIN.ueD2DTx[0].nic.phy  servingCell:vector  ETV
attr source  servingCell
attr title  "ID of the serving eNodeB for the UE, vector"
attr unit  ""
vector 263  CAIN.ueD2DTx[1].nic.phy  servingCell:vector  ETV
attr source  servingCell
attr title  "ID of the serving eNodeB for the UE, vector"
attr unit  ""
vector 295  CAIN.ueD2DTx[2].nic.phy  servingCell:vector  ETV
attr source  servingCell
attr title  "ID of the serving eNodeB for the UE, vector"
attr unit  ""
vector 327  CAIN.ueD2DTx[3].nic.phy  servingCell:vector  ETV
attr source  servingCell
attr title  "ID of the serving eNodeB for the UE, vector"
attr unit  ""
vector 359  CAIN.ueD2DTx[4].nic.phy  servingCell:vector  ETV
attr source  servingCell
attr title  "ID of the serving eNodeB for the UE, vector"
attr unit  ""
vector 391  CAIN.ueD2DTx[5].nic.phy  servingCell:vector  ETV
attr source  servingCell
attr title  "ID of the serving eNodeB for the UE, vector"
attr unit  ""
vector 423  CAIN.ueD2DTx[6].nic.phy  servingCell:vector  ETV
attr source  servingCell
attr title  "ID of the serving eNodeB for the UE, vector"
attr unit  ""
vector 455  CAIN.ueD2DTx[7].nic.phy  servingCell:vector  ETV
attr source  servingCell
attr title  "ID of the serving eNodeB for the UE, vector"
attr unit  ""
vector 487  CAIN.ueD2DTx[8].nic.phy  servingCell:vector  ETV
attr source  servingCell
attr title  "ID of the serving eNodeB for the UE, vector"
attr unit  ""
vector 519  CAIN.ueD2DTx[9].nic.phy  servingCell:vector  ETV
attr source  servingCell
attr title  "ID of the serving eNodeB for the UE, vector"
attr unit  ""
vector 551  CAIN.ueD2DTx[10].nic.phy  servingCell:vector  ETV
attr source  servingCell
attr title  "ID of the serving eNodeB for the UE, vector"
attr unit  ""
vector 583  CAIN.ueD2DTx[11].nic.phy  servingCell:vector  ETV
attr source  servingCell
attr title  "ID of the serving eNodeB for the UE, vector"
attr unit  ""
vector 615  CAIN.ueD2DTx[12].nic.phy  servingCell:vector  ETV
attr source  servingCell
attr title  "ID of the serving eNodeB for the UE, vector"
attr unit  ""
vector 647  CAIN.ueD2DTx[13].nic.phy  servingCell:vector  ETV
attr source  servingCell
attr title  "ID of the serving eNodeB for the UE, vector"
attr unit  ""
vector 679  CAIN.ueD2DTx[14].nic.phy  servingCell:vector  ETV
attr source  servingCell
attr title  "ID of the serving eNodeB for the UE, vector"
attr unit  ""
vector 711  CAIN.ueD2DTx[15].nic.phy  servingCell:vector  ETV
attr source  servingCell
attr title  "ID of the serving eNodeB for the UE, vector"
attr unit  ""
vector 743  CAIN.ueD2DTx[16].nic.phy  servingCell:vector  ETV
attr source  servingCell
attr title  "ID of the serving eNodeB for the UE, vector"
attr unit  ""
vector 775  CAIN.ueD2DTx[17].nic.phy  servingCell:vector  ETV
attr source  servingCell
attr title  "ID of the serving eNodeB for the UE, vector"
attr unit  ""
vector 807  CAIN.ueD2DTx[18].nic.phy  servingCell:vector  ETV
attr source  servingCell
attr title  "ID of the serving eNodeB for the UE, vector"
attr unit  ""
vector 839  CAIN.ueD2DTx[19].nic.phy  servingCell:vector  ETV
attr source  servingCell
attr title  "ID of the serving eNodeB for the UE, vector"
attr unit  ""
vector 863  CAIN.eNodeB.sctp  "Throughput of Association 3"  ETV
vector 885  CAIN.eNodeB1.sctp  "Throughput of Association 4"  ETV
vector 907  CAIN.eNodeB.sctp  "Throughput of Association 1"  ETV
vector 927  CAIN.eNodeB.sctp  "Fast Recovery State 1:10.0.5.2"  ETV
vector 956  CAIN.eNodeB1.sctp  "Throughput of Association 2"  ETV
vector 976  CAIN.eNodeB1.sctp  "Fast Recovery State 2:10.0.5.1"  ETV
vector 128  CAIN.eNodeB.x2ppp[0].queue  rcvdPk:vector(packetBytes)  ETV
attr interpolationmode  none
attr title  "received packets, vector(packetBytes)"
vector 130  CAIN.eNodeB.x2ppp[0].queue  queueingTime:vector  ETV
attr interpolationmode  none
attr title  "queueing time, vector"
vector 186  CAIN.eNodeB1.x2ppp[0].queue  rcvdPk:vector(packetBytes)  ETV
attr interpolationmode  none
attr title  "received packets, vector(packetBytes)"
vector 188  CAIN.eNodeB1.x2ppp[0].queue  queueingTime:vector  ETV
attr interpolationmode  none
attr title  "queueing time, vector"
vector 137  CAIN.eNodeB.x2ppp[0].ppp  rcvdPkFromHL:vector(packetBytes)  ETV
attr interpolationmode  none
attr source  packetReceivedFromUpper
attr title  "packets received from higher layer, vector(packetBytes)"
vector 133  CAIN.eNodeB.x2ppp[0].ppp  txPk:vector(packetBytes)  ETV
attr interpolationmode  none
attr source  packetSentToLower
attr title  "packets transmitted, vector(packetBytes)"
vector 195  CAIN.eNodeB1.x2ppp[0].ppp  rcvdPkFromHL:vector(packetBytes)  ETV
attr interpolationmode  none
attr source  packetReceivedFromUpper
attr title  "packets received from higher layer, vector(packetBytes)"
vector 191  CAIN.eNodeB1.x2ppp[0].ppp  txPk:vector(packetBytes)  ETV
attr interpolationmode  none
attr source  packetSentToLower
attr title  "packets transmitted, vector(packetBytes)"
vector 192  CAIN.eNodeB1.x2ppp[0].ppp  rxPkOk:vector(packetBytes)  ETV
attr interpolationmode  none
attr source  rxPkOk
attr title  "packets received OK, vector(packetBytes)"
vector 196  CAIN.eNodeB1.x2ppp[0].ppp  passedUpPk:vector(packetBytes)  ETV
attr interpolationmode  none
attr source  packetSentToUpper
attr title  "packets passed to higher layer, vector(packetBytes)"
vector 134  CAIN.eNodeB.x2ppp[0].ppp  rxPkOk:vector(packetBytes)  ETV
attr interpolationmode  none
attr source  rxPkOk
attr title  "packets received OK, vector(packetBytes)"
vector 138  CAIN.eNodeB.x2ppp[0].ppp  passedUpPk:vector(packetBytes)  ETV
attr interpolationmode  none
attr source  packetSentToUpper
attr title  "packets passed to higher layer, vector(packetBytes)"
vector 1005  CAIN.eNodeB1.sctp  "Throughput of Association 4"  ETV
vector 882  CAIN.eNodeB1.sctp  "Peer Rwnd 4"  ETV
vector 1025  CAIN.eNodeB1.sctp  "Fast Recovery State 5:10.0.4.1"  ETV
vector 1052  CAIN.eNodeB1.sctp  "Fast Recovery State 5:10.0.2.2"  ETV
vector 1079  CAIN.eNodeB1.sctp  "Fast Recovery State 5:10.0.5.1"  ETV
vector 1108  CAIN.eNodeB.sctp  "Throughput of Association 3"  ETV
vector 860  CAIN.eNodeB.sctp  "Peer Rwnd 3"  ETV
vector 1128  CAIN.eNodeB.sctp  "Fast Recovery State 6:10.0.4.2"  ETV
vector 1155  CAIN.eNodeB.sctp  "Fast Recovery State 6:10.0.3.2"  ETV
vector 1182  CAIN.eNodeB.sctp  "Fast Recovery State 6:10.0.5.2"  ETV
vector 904  CAIN.eNodeB.sctp  "Peer Rwnd 1"  ETV
vector 1209  CAIN.eNodeB.sctp  "Fast Recovery State 1:10.0.4.2"  ETV
vector 1236  CAIN.eNodeB.sctp  "Fast Recovery State 1:10.0.3.2"  ETV
vector 953  CAIN.eNodeB1.sctp  "Peer Rwnd 2"  ETV
vector 1263  CAIN.eNodeB1.sctp  "Fast Recovery State 2:10.0.4.1"  ETV
vector 1290  CAIN.eNodeB1.sctp  "Fast Recovery State 2:10.0.2.2"  ETV
vector 1035  CAIN.eNodeB1.sctp  "Slow Start Threshold 5:10.0.2.2"  ETV
vector 1036  CAIN.eNodeB1.sctp  "Congestion Window 5:10.0.2.2"  ETV
vector 1037  CAIN.eNodeB1.sctp  "Bandwidth 5:10.0.2.2"  ETV
vector 1040  CAIN.eNodeB1.sctp  "HB Sent 5:10.0.2.2"  ETV
vector 1033  CAIN.eNodeB1.sctp  "RTO 5:10.0.2.2"  ETV
vector 1008  CAIN.eNodeB1.sctp  "Slow Start Threshold 5:10.0.4.1"  ETV
vector 1009  CAIN.eNodeB1.sctp  "Congestion Window 5:10.0.4.1"  ETV
vector 1010  CAIN.eNodeB1.sctp  "Bandwidth 5:10.0.4.1"  ETV
vector 1013  CAIN.eNodeB1.sctp  "HB Sent 5:10.0.4.1"  ETV
vector 1006  CAIN.eNodeB1.sctp  "RTO 5:10.0.4.1"  ETV
vector 1062  CAIN.eNodeB1.sctp  "Slow Start Threshold 5:10.0.5.1"  ETV
vector 1063  CAIN.eNodeB1.sctp  "Congestion Window 5:10.0.5.1"  ETV
vector 1064  CAIN.eNodeB1.sctp  "Bandwidth 5:10.0.5.1"  ETV
vector 1060  CAIN.eNodeB1.sctp  "RTO 5:10.0.5.1"  ETV
vector 1138  CAIN.eNodeB.sctp  "Slow Start Threshold 6:10.0.3.2"  ETV
vector 1139  CAIN.eNodeB.sctp  "Congestion Window 6:10.0.3.2"  ETV
vector 1140  CAIN.eNodeB.sctp  "Bandwidth 6:10.0.3.2"  ETV
vector 1143  CAIN.eNodeB.sctp  "HB Sent 6:10.0.3.2"  ETV
vector 1136  CAIN.eNodeB.sctp  "RTO 6:10.0.3.2"  ETV
vector 1111  CAIN.eNodeB.sctp  "Slow Start Threshold 6:10.0.4.2"  ETV
vector 1112  CAIN.eNodeB.sctp  "Congestion Window 6:10.0.4.2"  ETV
vector 1113  CAIN.eNodeB.sctp  "Bandwidth 6:10.0.4.2"  ETV
vector 1116  CAIN.eNodeB.sctp  "HB Sent 6:10.0.4.2"  ETV
vector 1109  CAIN.eNodeB.sctp  "RTO 6:10.0.4.2"  ETV
vector 1165  CAIN.eNodeB.sctp  "Slow Start Threshold 6:10.0.5.2"  ETV
vector 1166  CAIN.eNodeB.sctp  "Congestion Window 6:10.0.5.2"  ETV
vector 1167  CAIN.eNodeB.sctp  "Bandwidth 6:10.0.5.2"  ETV
vector 1163  CAIN.eNodeB.sctp  "RTO 6:10.0.5.2"  ETV
vector 916  CAIN.eNodeB.sctp  "HB ACK Sent 1:10.0.5.2"  ETV
vector 917  CAIN.eNodeB.sctp  "HB Received 1:10.0.5.2"  ETV
vector 965  CAIN.eNodeB1.sctp  "HB ACK Sent 2:10.0.5.1"  ETV
vector 966  CAIN.eNodeB1.sctp  "HB Received 2:10.0.5.1"  ETV
vector 1219  CAIN.eNodeB.sctp  "Slow Start Threshold 1:10.0.3.2"  ETV
vector 1220  CAIN.eNodeB.sctp  "Congestion Window 1:10.0.3.2"  ETV
vector 1221  CAIN.eNodeB.sctp  "Bandwidth 1:10.0.3.2"  ETV
vector 1224  CAIN.eNodeB.sctp  "HB Sent 1:10.0.3.2"  ETV
vector 1217  CAIN.eNodeB.sctp  "RTO 1:10.0.3.2"  ETV
vector 1192  CAIN.eNodeB.sctp  "Slow Start Threshold 1:10.0.4.2"  ETV
vector 1193  CAIN.eNodeB.sctp  "Congestion Window 1:10.0.4.2"  ETV
vector 1194  CAIN.eNodeB.sctp  "Bandwidth 1:10.0.4.2"  ETV
vector 1197  CAIN.eNodeB.sctp  "HB Sent 1:10.0.4.2"  ETV
vector 1190  CAIN.eNodeB.sctp  "RTO 1:10.0.4.2"  ETV
vector 910  CAIN.eNodeB.sctp  "Slow Start Threshold 1:10.0.5.2"  ETV
vector 911  CAIN.eNodeB.sctp  "Congestion Window 1:10.0.5.2"  ETV
vector 912  CAIN.eNodeB.sctp  "Bandwidth 1:10.0.5.2"  ETV
vector 908  CAIN.eNodeB.sctp  "RTO 1:10.0.5.2"  ETV
vector 1273  CAIN.eNodeB1.sctp  "Slow Start Threshold 2:10.0.2.2"  ETV
vector 1274  CAIN.eNodeB1.sctp  "Congestion Window 2:10.0.2.2"  ETV
vector 1275  CAIN.eNodeB1.sctp  "Bandwidth 2:10.0.2.2"  ETV
vector 1278  CAIN.eNodeB1.sctp  "HB Sent 2:10.0.2.2"  ETV
vector 1271  CAIN.eNodeB1.sctp  "RTO 2:10.0.2.2"  ETV
vector 1246  CAIN.eNodeB1.sctp  "Slow Start Threshold 2:10.0.4.1"  ETV
vector 1247  CAIN.eNodeB1.sctp  "Congestion Window 2:10.0.4.1"  ETV
vector 1248  CAIN.eNodeB1.sctp  "Bandwidth 2:10.0.4.1"  ETV
vector 1251  CAIN.eNodeB1.sctp  "HB Sent 2:10.0.4.1"  ETV
vector 1244  CAIN.eNodeB1.sctp  "RTO 2:10.0.4.1"  ETV
vector 959  CAIN.eNodeB1.sctp  "Slow Start Threshold 2:10.0.5.1"  ETV
vector 960  CAIN.eNodeB1.sctp  "Congestion Window 2:10.0.5.1"  ETV
vector 961  CAIN.eNodeB1.sctp  "Bandwidth 2:10.0.5.1"  ETV
vector 957  CAIN.eNodeB1.sctp  "RTO 2:10.0.5.1"  ETV
vector 1173  CAIN.eNodeB.sctp  "HB ACK Received 6:10.0.5.2"  ETV
vector 1164  CAIN.eNodeB.sctp  "RTT 6:10.0.5.2"  ETV
vector 1070  CAIN.eNodeB1.sctp  "HB ACK Received 5:10.0.5.1"  ETV
vector 1061  CAIN.eNodeB1.sctp  "RTT 5:10.0.5.1"  ETV
vector 1171  CAIN.eNodeB.sctp  "HB ACK Sent 6:10.0.5.2"  ETV
vector 1172  CAIN.eNodeB.sctp  "HB Received 6:10.0.5.2"  ETV
vector 1068  CAIN.eNodeB1.sctp  "HB ACK Sent 5:10.0.5.1"  ETV
vector 1069  CAIN.eNodeB1.sctp  "HB Received 5:10.0.5.1"  ETV
vector 967  CAIN.eNodeB1.sctp  "HB ACK Received 2:10.0.5.1"  ETV
vector 958  CAIN.eNodeB1.sctp  "RTT 2:10.0.5.1"  ETV
vector 918  CAIN.eNodeB.sctp  "HB ACK Received 1:10.0.5.2"  ETV
vector 909  CAIN.eNodeB.sctp  "RTT 1:10.0.5.2"  ETV
vector 96  CAIN.eNodeB.nic.mac  receivedPacketFromLowerLayer:vector(packetBytes)  ETV
attr interpolationmode  none
attr source  receivedPacketFromLowerLayer
vector 1305  CAIN.eNodeB.sctp  "SendQueue of Association 6"  ETV
vector 1168  CAIN.eNodeB.sctp  "TSN Sent 6:10.0.5.2"  ETV
vector 1175  CAIN.eNodeB.sctp  "Outstanding Bytes 6:10.0.5.2"  ETV
vector 848  CAIN.eNodeB.sctp  "Outstanding Bytes 3:Total"  ETV
vector 1174  CAIN.eNodeB.sctp  "Queued Sent Bytes 6:10.0.5.2"  ETV
vector 847  CAIN.eNodeB.sctp  "Queued Sent Bytes 3:Total"  ETV
vector 963  CAIN.eNodeB1.sctp  "TSN Received 2:10.0.5.1"  ETV
vector 939  CAIN.eNodeB1.sctp  "Queued Received Bytes 2:Total"  ETV
vector 935  CAIN.eNodeB1.sctp  "Advertised Receiver Window 2"  ETV
vector 944  CAIN.eNodeB1.sctp  "Number of Total Gap Blocks Stored 2"  ETV
vector 945  CAIN.eNodeB1.sctp  "Number of Revokable Gap Blocks Stored 2"  ETV
vector 946  CAIN.eNodeB1.sctp  "Number of Non-Revokable Gap Blocks Stored 2"  ETV
vector 947  CAIN.eNodeB1.sctp  "Number of Duplicate TSNs Stored 2"  ETV
vector 951  CAIN.eNodeB1.sctp  "Length of SACK Sent 2"  ETV
vector 948  CAIN.eNodeB1.sctp  "Number of Revokable Gap Blocks Sent 2"  ETV
vector 949  CAIN.eNodeB1.sctp  "Number of Non-Revokable Gap Blocks Sent 2"  ETV
vector 950  CAIN.eNodeB1.sctp  "Number of Duplicate TSNs Sent 2"  ETV
vector 955  CAIN.eNodeB1.sctp  "End to End Delay of Association 2"  ETV
vector 199  CAIN.eNodeB1.x2App[0].client  rcvdPk:vector(packetBytes)  ETV
attr interpolationmode  none
attr source  rcvdPk
attr title  "packets received, vector(packetBytes)"
vector 1304  CAIN.eNodeB.sctp  "Number of Gap Blocks in Last SACK of Association 6"  ETV
vector 849  CAIN.eNodeB.sctp  "Number of Revokable Gap Blocks in SACK 3"  ETV
vector 850  CAIN.eNodeB.sctp  "Number of Non-Revokable Gap Blocks in SACK 3"  ETV
vector 1185  CAIN.eNodeB.sctp  "TSN Acked CumAck 6:10.0.5.2"  ETV
vector 1151  CAIN.eNodeB.sctp  "Number of Gap Acked Chunks in Last SACK 6:10.0.3.2"  ETV
vector 1152  CAIN.eNodeB.sctp  "Number of Non-Revokable Gap Acked Chunks in Last SACK 6:10.0.3.2"  ETV
vector 1153  CAIN.eNodeB.sctp  "Number of Gap Missed Chunks in Last SACK 6:10.0.3.2"  ETV
vector 1124  CAIN.eNodeB.sctp  "Number of Gap Acked Chunks in Last SACK 6:10.0.4.2"  ETV
vector 1125  CAIN.eNodeB.sctp  "Number of Non-Revokable Gap Acked Chunks in Last SACK 6:10.0.4.2"  ETV
vector 1126  CAIN.eNodeB.sctp  "Number of Gap Missed Chunks in Last SACK 6:10.0.4.2"  ETV
vector 1178  CAIN.eNodeB.sctp  "Number of Gap Acked Chunks in Last SACK 6:10.0.5.2"  ETV
vector 1179  CAIN.eNodeB.sctp  "Number of Non-Revokable Gap Acked Chunks in Last SACK 6:10.0.5.2"  ETV
vector 1180  CAIN.eNodeB.sctp  "Number of Gap Missed Chunks in Last SACK 6:10.0.5.2"  ETV
vector 859  CAIN.eNodeB.sctp  "Arwnd in Last SACK 3"  ETV
vector 1187  CAIN.eNodeB.sctp  "TSN PseudoCumAck 6:10.0.5.2"  ETV
vector 1188  CAIN.eNodeB.sctp  "TSN RTXPseudoCumAck 6:10.0.5.2"  ETV
vector 1181  CAIN.eNodeB.sctp  "Partial Bytes Acked 6:10.0.5.2"  ETV
vector 1333  CAIN.ueD2DTx[16].tcp  tcpRcvQueueBytes  ETV
vector 1320  CAIN.ueD2DTx[16].tcp  "advertised window"  ETV
vector 1319  CAIN.ueD2DTx[16].tcp  "receive window"  ETV
vector 1322  CAIN.ueD2DTx[16].tcp  "sent ack"  ETV
vector 717  CAIN.ueD2DTx[16].nic.pdcpRrc  receivedPacketFromUpperLayer:vector(packetBytes)  ETV
attr interpolationmode  none
attr source  receivedPacketFromUpperLayer
vector 720  CAIN.ueD2DTx[16].nic.pdcpRrc  sentPacketToLowerLayer:vector(packetBytes)  ETV
attr interpolationmode  none
attr source  sentPacketToLowerLayer
vector 721  CAIN.ueD2DTx[16].nic.mac  receivedPacketFromUpperLayer:vector(packetBytes)  ETV
attr interpolationmode  none
attr source  receivedPacketFromUpperLayer
vector 730  CAIN.ueD2DTx[16].nic.mac  CainMessageSent:vector  ETV
attr interpolationmode  none
attr title  "# of Sent CAIN message, vector"
vector 724  CAIN.ueD2DTx[16].nic.mac  sentPacketToLowerLayer:vector(packetBytes)  ETV
attr interpolationmode  none
attr source  sentPacketToLowerLayer
vector 658  CAIN.ueD2DTx[14].nic.mac  receivedPacketFromLowerLayer:vector(packetBytes)  ETV
attr interpolationmode  none
attr source  receivedPacketFromLowerLayer
vector 660  CAIN.ueD2DTx[14].nic.mac  sentPacketToLowerLayer:vector(packetBytes)  ETV
attr interpolationmode  none
attr source  sentPacketToLowerLayer
vector 111  CAIN.eNodeB.nic.mac  racpkt:vector  ETV
attr interpolationmode  none
attr title  "eNB received racpkt message, vector"
vector 112  CAIN.eNodeB.nic.mac  racDistanceSignal:vector  ETV
attr interpolationmode  none
attr title  "Rac distance to enb, vector"
vector 113  CAIN.eNodeB.nic.mac  racServedDevsSignal:vector  ETV
attr interpolationmode  none
attr title  "# of devices served on rac arriavall, vector"
vector 106  CAIN.eNodeB.nic.mac  DistanceSignal:vector  ETV
attr interpolationmode  none
attr title  "Distance to enb, vector"
vector 100  CAIN.eNodeB.nic.mac  CainMessage:vector  ETV
attr interpolationmode  none
attr title  "eNB received CAIN message, vector"
vector 98  CAIN.eNodeB.nic.mac  sentPacketToLowerLayer:vector(packetBytes)  ETV
attr interpolationmode  none
attr source  sentPacketToLowerLayer
vector 664  CAIN.ueD2DTx[14].nic.mac  DropedCainMessage:vector  ETV
attr interpolationmode  none
attr title  "Droped CAIN message due to RB not available, vector"
vector 1357  CAIN.ueD2DTx[3].tcp  tcpRcvQueueBytes  ETV
vector 1344  CAIN.ueD2DTx[3].tcp  "advertised window"  ETV
vector 1343  CAIN.ueD2DTx[3].tcp  "receive window"  ETV
vector 1346  CAIN.ueD2DTx[3].tcp  "sent ack"  ETV
vector 301  CAIN.ueD2DTx[3].nic.pdcpRrc  receivedPacketFromUpperLayer:vector(packetBytes)  ETV
attr interpolationmode  none
attr source  receivedPacketFromUpperLayer
vector 304  CAIN.ueD2DTx[3].nic.pdcpRrc  sentPacketToLowerLayer:vector(packetBytes)  ETV
attr interpolationmode  none
attr source  sentPacketToLowerLayer
vector 305  CAIN.ueD2DTx[3].nic.mac  receivedPacketFromUpperLayer:vector(packetBytes)  ETV
attr interpolationmode  none
attr source  receivedPacketFromUpperLayer
vector 315  CAIN.ueD2DTx[3].nic.mac  CainHopMessageSent:vector  ETV
attr interpolationmode  none
attr title  "# of Sent CAIN hop message, vector"
vector 308  CAIN.ueD2DTx[3].nic.mac  sentPacketToLowerLayer:vector(packetBytes)  ETV
attr interpolationmode  none
attr source  sentPacketToLowerLayer
vector 626  CAIN.ueD2DTx[13].nic.mac  receivedPacketFromLowerLayer:vector(packetBytes)  ETV
attr interpolationmode  none
attr source  receivedPacketFromLowerLayer
vector 628  CAIN.ueD2DTx[13].nic.mac  sentPacketToLowerLayer:vector(packetBytes)  ETV
attr interpolationmode  none
attr source  sentPacketToLowerLayer
vector 101  CAIN.eNodeB.nic.mac  CainHopMessage:vector  ETV
attr interpolationmode  none
attr title  "eNB received CAIN hop message, vector"
vector 665  CAIN.ueD2DTx[14].nic.mac  DropedHopMessage:vector  ETV
attr interpolationmode  none
attr title  "Droped Hop CAIN message due to RB not available, vector"
vector 1381  CAIN.ueD2DTx[7].tcp  tcpRcvQueueBytes  ETV
vector 1368  CAIN.ueD2DTx[7].tcp  "advertised window"  ETV
vector 1367  CAIN.ueD2DTx[7].tcp  "receive window"  ETV
vector 1370  CAIN.ueD2DTx[7].tcp  "sent ack"  ETV
vector 429  CAIN.ueD2DTx[7].nic.pdcpRrc  receivedPacketFromUpperLayer:vector(packetBytes)  ETV
attr interpolationmode  none
attr source  receivedPacketFromUpperLayer
vector 432  CAIN.ueD2DTx[7].nic.pdcpRrc  sentPacketToLowerLayer:vector(packetBytes)  ETV
attr interpolationmode  none
attr source  sentPacketToLowerLayer
vector 433  CAIN.ueD2DTx[7].nic.mac  receivedPacketFromUpperLayer:vector(packetBytes)  ETV
attr interpolationmode  none
attr source  receivedPacketFromUpperLayer
vector 436  CAIN.ueD2DTx[7].nic.mac  sentPacketToLowerLayer:vector(packetBytes)  ETV
attr interpolationmode  none
attr source  sentPacketToLowerLayer
vector 1405  CAIN.ueD2DTx[18].tcp  tcpRcvQueueBytes  ETV
vector 1392  CAIN.ueD2DTx[18].tcp  "advertised window"  ETV
vector 1391  CAIN.ueD2DTx[18].tcp  "receive window"  ETV
vector 1394  CAIN.ueD2DTx[18].tcp  "sent ack"  ETV
vector 781  CAIN.ueD2DTx[18].nic.pdcpRrc  receivedPacketFromUpperLayer:vector(packetBytes)  ETV
attr interpolationmode  none
attr source  receivedPacketFromUpperLayer
vector 784  CAIN.ueD2DTx[18].nic.pdcpRrc  sentPacketToLowerLayer:vector(packetBytes)  ETV
attr interpolationmode  none
attr source  sentPacketToLowerLayer
vector 785  CAIN.ueD2DTx[18].nic.mac  receivedPacketFromUpperLayer:vector(packetBytes)  ETV
attr interpolationmode  none
attr source  receivedPacketFromUpperLayer
vector 794  CAIN.ueD2DTx[18].nic.mac  CainMessageSent:vector  ETV
attr interpolationmode  none
attr title  "# of Sent CAIN message, vector"
vector 788  CAIN.ueD2DTx[18].nic.mac  sentPacketToLowerLayer:vector(packetBytes)  ETV
attr interpolationmode  none
attr source  sentPacketToLowerLayer
vector 434  CAIN.ueD2DTx[7].nic.mac  receivedPacketFromLowerLayer:vector(packetBytes)  ETV
attr interpolationmode  none
attr source  receivedPacketFromLowerLayer
vector 435  CAIN.ueD2DTx[7].nic.mac  sentPacketToUpperLayer:vector(packetBytes)  ETV
attr interpolationmode  none
attr source  sentPacketToUpperLayer
vector 1429  CAIN.ueD2DTx[10].tcp  tcpRcvQueueBytes  ETV
vector 1416  CAIN.ueD2DTx[10].tcp  "advertised window"  ETV
vector 1415  CAIN.ueD2DTx[10].tcp  "receive window"  ETV
vector 1418  CAIN.ueD2DTx[10].tcp  "sent ack"  ETV
vector 525  CAIN.ueD2DTx[10].nic.pdcpRrc  receivedPacketFromUpperLayer:vector(packetBytes)  ETV
attr interpolationmode  none
attr source  receivedPacketFromUpperLayer
vector 528  CAIN.ueD2DTx[10].nic.pdcpRrc  sentPacketToLowerLayer:vector(packetBytes)  ETV
attr interpolationmode  none
attr source  sentPacketToLowerLayer
vector 529  CAIN.ueD2DTx[10].nic.mac  receivedPacketFromUpperLayer:vector(packetBytes)  ETV
attr interpolationmode  none
attr source  receivedPacketFromUpperLayer
vector 538  CAIN.ueD2DTx[10].nic.mac  CainMessageSent:vector  ETV
attr interpolationmode  none
attr title  "# of Sent CAIN message, vector"
vector 532  CAIN.ueD2DTx[10].nic.mac  sentPacketToLowerLayer:vector(packetBytes)  ETV
attr interpolationmode  none
attr source  sentPacketToLowerLayer
vector 115  CAIN.eNodeB.nic.phy  averageCqiUlvect:vector  ETV
attr source  averageCqiUlvect
attr title  "Average Cqi reported in UL, vector"
attr unit  cqi
vector 99  CAIN.eNodeB.nic.mac  measuredItbs:vector  ETV
attr source  measuredItbs
attr title  "TBS index, vector"
attr unit  ""
vector 108  CAIN.eNodeB.nic.mac  ServedDevs:vector  ETV
attr interpolationmode  none
attr title  "# of devices served on cain forwarding, vector"
vector 1453  CAIN.ueD2DTx[8].tcp  tcpRcvQueueBytes  ETV
vector 1440  CAIN.ueD2DTx[8].tcp  "advertised window"  ETV
vector 1439  CAIN.ueD2DTx[8].tcp  "receive window"  ETV
vector 1442  CAIN.ueD2DTx[8].tcp  "sent ack"  ETV
vector 461  CAIN.ueD2DTx[8].nic.pdcpRrc  receivedPacketFromUpperLayer:vector(packetBytes)  ETV
attr interpolationmode  none
attr source  receivedPacketFromUpperLayer
vector 464  CAIN.ueD2DTx[8].nic.pdcpRrc  sentPacketToLowerLayer:vector(packetBytes)  ETV
attr interpolationmode  none
attr source  sentPacketToLowerLayer
vector 465  CAIN.ueD2DTx[8].nic.mac  receivedPacketFromUpperLayer:vector(packetBytes)  ETV
attr interpolationmode  none
attr source  receivedPacketFromUpperLayer
vector 1477  CAIN.ueD2DTx[9].tcp  tcpRcvQueueBytes  ETV
vector 1464  CAIN.ueD2DTx[9].tcp  "advertised window"  ETV
vector 1463  CAIN.ueD2DTx[9].tcp  "receive window"  ETV
vector 1466  CAIN.ueD2DTx[9].tcp  "sent ack"  ETV
vector 493  CAIN.ueD2DTx[9].nic.pdcpRrc  receivedPacketFromUpperLayer:vector(packetBytes)  ETV
attr interpolationmode  none
attr source  receivedPacketFromUpperLayer
vector 496  CAIN.ueD2DTx[9].nic.pdcpRrc  sentPacketToLowerLayer:vector(packetBytes)  ETV
attr interpolationmode  none
attr source  sentPacketToLowerLayer
vector 497  CAIN.ueD2DTx[9].nic.mac  receivedPacketFromUpperLayer:vector(packetBytes)  ETV
attr interpolationmode  none
attr source  receivedPacketFromUpperLayer
vector 468  CAIN.ueD2DTx[8].nic.mac  sentPacketToLowerLayer:vector(packetBytes)  ETV
attr interpolationmode  none
attr source  sentPacketToLowerLayer
vector 506  CAIN.ueD2DTx[9].nic.mac  CainMessageSent:vector  ETV
attr interpolationmode  none
attr title  "# of Sent CAIN message, vector"
vector 500  CAIN.ueD2DTx[9].nic.mac  sentPacketToLowerLayer:vector(packetBytes)  ETV
attr interpolationmode  none
attr source  sentPacketToLowerLayer
vector 1501  CAIN.ueD2DTx[14].tcp  tcpRcvQueueBytes  ETV
vector 1488  CAIN.ueD2DTx[14].tcp  "advertised window"  ETV
vector 1487  CAIN.ueD2DTx[14].tcp  "receive window"  ETV
vector 1490  CAIN.ueD2DTx[14].tcp  "sent ack"  ETV
vector 653  CAIN.ueD2DTx[14].nic.pdcpRrc  receivedPacketFromUpperLayer:vector(packetBytes)  ETV
attr interpolationmode  none
attr source  receivedPacketFromUpperLayer
vector 656  CAIN.ueD2DTx[14].nic.pdcpRrc  sentPacketToLowerLayer:vector(packetBytes)  ETV
attr interpolationmode  none
attr source  sentPacketToLowerLayer
vector 657  CAIN.ueD2DTx[14].nic.mac  receivedPacketFromUpperLayer:vector(packetBytes)  ETV
attr interpolationmode  none
attr source  receivedPacketFromUpperLayer
vector 466  CAIN.ueD2DTx[8].nic.mac  receivedPacketFromLowerLayer:vector(packetBytes)  ETV
attr interpolationmode  none
attr source  receivedPacketFromLowerLayer
vector 97  CAIN.eNodeB.nic.mac  sentPacketToUpperLayer:vector(packetBytes)  ETV
attr interpolationmode  none
attr source  sentPacketToUpperLayer
vector 92  CAIN.eNodeB.nic.pdcpRrc  receivedPacketFromLowerLayer:vector(packetBytes)  ETV
attr interpolationmode  none
attr source  receivedPacketFromLowerLayer
vector 93  CAIN.eNodeB.nic.pdcpRrc  sentPacketToUpperLayer:vector(packetBytes)  ETV
attr interpolationmode  none
attr source  sentPacketToUpperLayer
vector 91  CAIN.eNodeB.nic.pdcpRrc  receivedPacketFromUpperLayer:vector(packetBytes)  ETV
attr interpolationmode  none
attr source  receivedPacketFromUpperLayer
vector 94  CAIN.eNodeB.nic.pdcpRrc  sentPacketToLowerLayer:vector(packetBytes)  ETV
attr interpolationmode  none
attr source  sentPacketToLowerLayer
vector 95  CAIN.eNodeB.nic.mac  receivedPacketFromUpperLayer:vector(packetBytes)  ETV
attr interpolationmode  none
attr source  receivedPacketFromUpperLayer
vector 467  CAIN.ueD2DTx[8].nic.mac  sentPacketToUpperLayer:vector(packetBytes)  ETV
attr interpolationmode  none
attr source  sentPacketToUpperLayer
vector 659  CAIN.ueD2DTx[14].nic.mac  sentPacketToUpperLayer:vector(packetBytes)  ETV
attr interpolationmode  none
attr source  sentPacketToUpperLayer
vector 109  CAIN.eNodeB.nic.mac  ServedHopDevs:vector  ETV
attr interpolationmode  none
attr title  "# of devices served on hop forwarding, vector"
vector 228  CAIN.ueD2DTx[0].nic.phy  averageCqiDlvect:vector  ETV
attr source  averageCqiDlvect
attr title  "Average Cqi reported in DL, vector"
attr unit  cqi
vector 210  CAIN.ueD2DTx[0].nic.mac  receivedPacketFromLowerLayer:vector(packetBytes)  ETV
attr interpolationmode  none
attr source  receivedPacketFromLowerLayer
vector 795  CAIN.ueD2DTx[18].nic.mac  CainHopMessageSent:vector  ETV
attr interpolationmode  none
attr title  "# of Sent CAIN hop message, vector"
vector 242  CAIN.ueD2DTx[1].nic.mac  receivedPacketFromLowerLayer:vector(packetBytes)  ETV
attr interpolationmode  none
attr source  receivedPacketFromLowerLayer
vector 244  CAIN.ueD2DTx[1].nic.mac  sentPacketToLowerLayer:vector(packetBytes)  ETV
attr interpolationmode  none
attr source  sentPacketToLowerLayer
vector 212  CAIN.ueD2DTx[0].nic.mac  sentPacketToLowerLayer:vector(packetBytes)  ETV
attr interpolationmode  none
attr source  sentPacketToLowerLayer
vector 211  CAIN.ueD2DTx[0].nic.mac  sentPacketToUpperLayer:vector(packetBytes)  ETV
attr interpolationmode  none
attr source  sentPacketToUpperLayer
vector 206  CAIN.ueD2DTx[0].nic.pdcpRrc  receivedPacketFromLowerLayer:vector(packetBytes)  ETV
attr interpolationmode  none
attr source  receivedPacketFromLowerLayer
vector 207  CAIN.ueD2DTx[0].nic.pdcpRrc  sentPacketToUpperLayer:vector(packetBytes)  ETV
attr interpolationmode  none
attr source  sentPacketToUpperLayer
vector 731  CAIN.ueD2DTx[16].nic.mac  CainHopMessageSent:vector  ETV
attr interpolationmode  none
attr title  "# of Sent CAIN hop message, vector"
vector 217  CAIN.ueD2DTx[0].nic.mac  DropedHopMessage:vector  ETV
attr interpolationmode  none
attr title  "Droped Hop CAIN message due to RB not available, vector"
vector 1301  CAIN.eNodeB1.sctp  "SendQueue of Association 5"  ETV
vector 1065  CAIN.eNodeB1.sctp  "TSN Sent 5:10.0.5.1"  ETV
vector 1072  CAIN.eNodeB1.sctp  "Outstanding Bytes 5:10.0.5.1"  ETV
vector 870  CAIN.eNodeB1.sctp  "Outstanding Bytes 4:Total"  ETV
vector 1071  CAIN.eNodeB1.sctp  "Queued Sent Bytes 5:10.0.5.1"  ETV
vector 869  CAIN.eNodeB1.sctp  "Queued Sent Bytes 4:Total"  ETV
vector 914  CAIN.eNodeB.sctp  "TSN Received 1:10.0.5.2"  ETV
vector 890  CAIN.eNodeB.sctp  "Queued Received Bytes 1:Total"  ETV
vector 886  CAIN.eNodeB.sctp  "Advertised Receiver Window 1"  ETV
vector 895  CAIN.eNodeB.sctp  "Number of Total Gap Blocks Stored 1"  ETV
vector 896  CAIN.eNodeB.sctp  "Number of Revokable Gap Blocks Stored 1"  ETV
vector 897  CAIN.eNodeB.sctp  "Number of Non-Revokable Gap Blocks Stored 1"  ETV
vector 898  CAIN.eNodeB.sctp  "Number of Duplicate TSNs Stored 1"  ETV
vector 902  CAIN.eNodeB.sctp  "Length of SACK Sent 1"  ETV
vector 899  CAIN.eNodeB.sctp  "Number of Revokable Gap Blocks Sent 1"  ETV
vector 900  CAIN.eNodeB.sctp  "Number of Non-Revokable Gap Blocks Sent 1"  ETV
vector 901  CAIN.eNodeB.sctp  "Number of Duplicate TSNs Sent 1"  ETV
vector 906  CAIN.eNodeB.sctp  "End to End Delay of Association 1"  ETV
vector 141  CAIN.eNodeB.x2App[0].client  rcvdPk:vector(packetBytes)  ETV
attr interpolationmode  none
attr source  rcvdPk
attr title  "packets received, vector(packetBytes)"
vector 1300  CAIN.eNodeB1.sctp  "Number of Gap Blocks in Last SACK of Association 5"  ETV
vector 871  CAIN.eNodeB1.sctp  "Number of Revokable Gap Blocks in SACK 4"  ETV
vector 872  CAIN.eNodeB1.sctp  "Number of Non-Revokable Gap Blocks in SACK 4"  ETV
vector 1082  CAIN.eNodeB1.sctp  "TSN Acked CumAck 5:10.0.5.1"  ETV
vector 1048  CAIN.eNodeB1.sctp  "Number of Gap Acked Chunks in Last SACK 5:10.0.2.2"  ETV
vector 1049  CAIN.eNodeB1.sctp  "Number of Non-Revokable Gap Acked Chunks in Last SACK 5:10.0.2.2"  ETV
vector 1050  CAIN.eNodeB1.sctp  "Number of Gap Missed Chunks in Last SACK 5:10.0.2.2"  ETV
vector 1021  CAIN.eNodeB1.sctp  "Number of Gap Acked Chunks in Last SACK 5:10.0.4.1"  ETV
vector 1022  CAIN.eNodeB1.sctp  "Number of Non-Revokable Gap Acked Chunks in Last SACK 5:10.0.4.1"  ETV
vector 1023  CAIN.eNodeB1.sctp  "Number of Gap Missed Chunks in Last SACK 5:10.0.4.1"  ETV
vector 1075  CAIN.eNodeB1.sctp  "Number of Gap Acked Chunks in Last SACK 5:10.0.5.1"  ETV
vector 1076  CAIN.eNodeB1.sctp  "Number of Non-Revokable Gap Acked Chunks in Last SACK 5:10.0.5.1"  ETV
vector 1077  CAIN.eNodeB1.sctp  "Number of Gap Missed Chunks in Last SACK 5:10.0.5.1"  ETV
vector 881  CAIN.eNodeB1.sctp  "Arwnd in Last SACK 4"  ETV
vector 1084  CAIN.eNodeB1.sctp  "TSN PseudoCumAck 5:10.0.5.1"  ETV
vector 1085  CAIN.eNodeB1.sctp  "TSN RTXPseudoCumAck 5:10.0.5.1"  ETV
vector 1078  CAIN.eNodeB1.sctp  "Partial Bytes Acked 5:10.0.5.1"  ETV
vector 1525  CAIN.ueD2DTx[4].tcp  tcpRcvQueueBytes  ETV
vector 1512  CAIN.ueD2DTx[4].tcp  "advertised window"  ETV
vector 1511  CAIN.ueD2DTx[4].tcp  "receive window"  ETV
vector 1514  CAIN.ueD2DTx[4].tcp  "sent ack"  ETV
vector 333  CAIN.ueD2DTx[4].nic.pdcpRrc  receivedPacketFromUpperLayer:vector(packetBytes)  ETV
attr interpolationmode  none
attr source  receivedPacketFromUpperLayer
vector 336  CAIN.ueD2DTx[4].nic.pdcpRrc  sentPacketToLowerLayer:vector(packetBytes)  ETV
attr interpolationmode  none
attr source  sentPacketToLowerLayer
vector 337  CAIN.ueD2DTx[4].nic.mac  receivedPacketFromUpperLayer:vector(packetBytes)  ETV
attr interpolationmode  none
attr source  receivedPacketFromUpperLayer
vector 347  CAIN.ueD2DTx[4].nic.mac  CainHopMessageSent:vector  ETV
attr interpolationmode  none
attr title  "# of Sent CAIN hop message, vector"
vector 340  CAIN.ueD2DTx[4].nic.mac  sentPacketToLowerLayer:vector(packetBytes)  ETV
attr interpolationmode  none
attr source  sentPacketToLowerLayer
vector 154  CAIN.eNodeB1.nic.mac  receivedPacketFromLowerLayer:vector(packetBytes)  ETV
attr interpolationmode  none
attr source  receivedPacketFromLowerLayer
vector 1549  CAIN.ueD2DTx[6].tcp  tcpRcvQueueBytes  ETV
vector 1536  CAIN.ueD2DTx[6].tcp  "advertised window"  ETV
vector 1535  CAIN.ueD2DTx[6].tcp  "receive window"  ETV
vector 1538  CAIN.ueD2DTx[6].tcp  "sent ack"  ETV
vector 397  CAIN.ueD2DTx[6].nic.pdcpRrc  receivedPacketFromUpperLayer:vector(packetBytes)  ETV
attr interpolationmode  none
attr source  receivedPacketFromUpperLayer
vector 400  CAIN.ueD2DTx[6].nic.pdcpRrc  sentPacketToLowerLayer:vector(packetBytes)  ETV
attr interpolationmode  none
attr source  sentPacketToLowerLayer
vector 401  CAIN.ueD2DTx[6].nic.mac  receivedPacketFromUpperLayer:vector(packetBytes)  ETV
attr interpolationmode  none
attr source  receivedPacketFromUpperLayer
vector 410  CAIN.ueD2DTx[6].nic.mac  CainMessageSent:vector  ETV
attr interpolationmode  none
attr title  "# of Sent CAIN message, vector"
vector 404  CAIN.ueD2DTx[6].nic.mac  sentPacketToLowerLayer:vector(packetBytes)  ETV
attr interpolationmode  none
attr source  sentPacketToLowerLayer
vector 1573  CAIN.ueD2DTx[13].tcp  tcpRcvQueueBytes  ETV
vector 1560  CAIN.ueD2DTx[13].tcp  "advertised window"  ETV
vector 1559  CAIN.ueD2DTx[13].tcp  "receive window"  ETV
vector 1562  CAIN.ueD2DTx[13].tcp  "sent ack"  ETV
vector 621  CAIN.ueD2DTx[13].nic.pdcpRrc  receivedPacketFromUpperLayer:vector(packetBytes)  ETV
attr interpolationmode  none
attr source  receivedPacketFromUpperLayer
vector 624  CAIN.ueD2DTx[13].nic.pdcpRrc  sentPacketToLowerLayer:vector(packetBytes)  ETV
attr interpolationmode  none
attr source  sentPacketToLowerLayer
vector 625  CAIN.ueD2DTx[13].nic.mac  receivedPacketFromUpperLayer:vector(packetBytes)  ETV
attr interpolationmode  none
attr source  receivedPacketFromUpperLayer
vector 1597  CAIN.ueD2DTx[11].tcp  tcpRcvQueueBytes  ETV
vector 1584  CAIN.ueD2DTx[11].tcp  "advertised window"  ETV
vector 1583  CAIN.ueD2DTx[11].tcp  "receive window"  ETV
vector 1586  CAIN.ueD2DTx[11].tcp  "sent ack"  ETV
vector 557  CAIN.ueD2DTx[11].nic.pdcpRrc  receivedPacketFromUpperLayer:vector(packetBytes)  ETV
attr interpolationmode  none
attr source  receivedPacketFromUpperLayer
vector 560  CAIN.ueD2DTx[11].nic.pdcpRrc  sentPacketToLowerLayer:vector(packetBytes)  ETV
attr interpolationmode  none
attr source  sentPacketToLowerLayer
vector 561  CAIN.ueD2DTx[11].nic.mac  receivedPacketFromUpperLayer:vector(packetBytes)  ETV
attr interpolationmode  none
attr source  receivedPacketFromUpperLayer
vector 570  CAIN.ueD2DTx[11].nic.mac  CainMessageSent:vector  ETV
attr interpolationmode  none
attr title  "# of Sent CAIN message, vector"
vector 564  CAIN.ueD2DTx[11].nic.mac  sentPacketToLowerLayer:vector(packetBytes)  ETV
attr interpolationmode  none
attr source  sentPacketToLowerLayer
vector 169  CAIN.eNodeB1.nic.mac  racpkt:vector  ETV
attr interpolationmode  none
attr title  "eNB received racpkt message, vector"
vector 170  CAIN.eNodeB1.nic.mac  racDistanceSignal:vector  ETV
attr interpolationmode  none
attr title  "Rac distance to enb, vector"
vector 171  CAIN.eNodeB1.nic.mac  racServedDevsSignal:vector  ETV
attr interpolationmode  none
attr title  "# of devices served on rac arriavall, vector"
vector 156  CAIN.eNodeB1.nic.mac  sentPacketToLowerLayer:vector(packetBytes)  ETV
attr interpolationmode  none
attr source  sentPacketToLowerLayer
vector 1621  CAIN.ueD2DTx[1].tcp  tcpRcvQueueBytes  ETV
vector 1608  CAIN.ueD2DTx[1].tcp  "advertised window"  ETV
vector 1607  CAIN.ueD2DTx[1].tcp  "receive window"  ETV
vector 1610  CAIN.ueD2DTx[1].tcp  "sent ack"  ETV
vector 237  CAIN.ueD2DTx[1].nic.pdcpRrc  receivedPacketFromUpperLayer:vector(packetBytes)  ETV
attr interpolationmode  none
attr source  receivedPacketFromUpperLayer
vector 240  CAIN.ueD2DTx[1].nic.pdcpRrc  sentPacketToLowerLayer:vector(packetBytes)  ETV
attr interpolationmode  none
attr source  sentPacketToLowerLayer
vector 241  CAIN.ueD2DTx[1].nic.mac  receivedPacketFromUpperLayer:vector(packetBytes)  ETV
attr interpolationmode  none
attr source  receivedPacketFromUpperLayer
vector 250  CAIN.ueD2DTx[1].nic.mac  CainMessageSent:vector  ETV
attr interpolationmode  none
attr title  "# of Sent CAIN message, vector"
vector 1645  CAIN.ueD2DTx[15].tcp  tcpRcvQueueBytes  ETV
vector 1632  CAIN.ueD2DTx[15].tcp  "advertised window"  ETV
vector 1631  CAIN.ueD2DTx[15].tcp  "receive window"  ETV
vector 1634  CAIN.ueD2DTx[15].tcp  "sent ack"  ETV
vector 685  CAIN.ueD2DTx[15].nic.pdcpRrc  receivedPacketFromUpperLayer:vector(packetBytes)  ETV
attr interpolationmode  none
attr source  receivedPacketFromUpperLayer
vector 688  CAIN.ueD2DTx[15].nic.pdcpRrc  sentPacketToLowerLayer:vector(packetBytes)  ETV
attr interpolationmode  none
attr source  sentPacketToLowerLayer
vector 689  CAIN.ueD2DTx[15].nic.mac  receivedPacketFromUpperLayer:vector(packetBytes)  ETV
attr interpolationmode  none
attr source  receivedPacketFromUpperLayer
vector 692  CAIN.ueD2DTx[15].nic.mac  sentPacketToLowerLayer:vector(packetBytes)  ETV
attr interpolationmode  none
attr source  sentPacketToLowerLayer
vector 690  CAIN.ueD2DTx[15].nic.mac  receivedPacketFromLowerLayer:vector(packetBytes)  ETV
attr interpolationmode  none
attr source  receivedPacketFromLowerLayer
vector 216  CAIN.ueD2DTx[0].nic.mac  DropedCainMessage:vector  ETV
attr interpolationmode  none
attr title  "Droped CAIN message due to RB not available, vector"
vector 1669  CAIN.ueD2DTx[5].tcp  tcpRcvQueueBytes  ETV
vector 1656  CAIN.ueD2DTx[5].tcp  "advertised window"  ETV
vector 1655  CAIN.ueD2DTx[5].tcp  "receive window"  ETV
vector 1658  CAIN.ueD2DTx[5].tcp  "sent ack"  ETV
vector 365  CAIN.ueD2DTx[5].nic.pdcpRrc  receivedPacketFromUpperLayer:vector(packetBytes)  ETV
attr interpolationmode  none
attr source  receivedPacketFromUpperLayer
vector 368  CAIN.ueD2DTx[5].nic.pdcpRrc  sentPacketToLowerLayer:vector(packetBytes)  ETV
attr interpolationmode  none
attr source  sentPacketToLowerLayer
vector 369  CAIN.ueD2DTx[5].nic.mac  receivedPacketFromUpperLayer:vector(packetBytes)  ETV
attr interpolationmode  none
attr source  receivedPacketFromUpperLayer
vector 1693  CAIN.ueD2DTx[12].tcp  tcpRcvQueueBytes  ETV
vector 1680  CAIN.ueD2DTx[12].tcp  "advertised window"  ETV
vector 1679  CAIN.ueD2DTx[12].tcp  "receive window"  ETV
vector 1682  CAIN.ueD2DTx[12].tcp  "sent ack"  ETV
vector 589  CAIN.ueD2DTx[12].nic.pdcpRrc  receivedPacketFromUpperLayer:vector(packetBytes)  ETV
attr interpolationmode  none
attr source  receivedPacketFromUpperLayer
vector 592  CAIN.ueD2DTx[12].nic.pdcpRrc  sentPacketToLowerLayer:vector(packetBytes)  ETV
attr interpolationmode  none
attr source  sentPacketToLowerLayer
vector 593  CAIN.ueD2DTx[12].nic.mac  receivedPacketFromUpperLayer:vector(packetBytes)  ETV
attr interpolationmode  none
attr source  receivedPacketFromUpperLayer
vector 1717  CAIN.ueD2DTx[0].tcp  tcpRcvQueueBytes  ETV
vector 1704  CAIN.ueD2DTx[0].tcp  "advertised window"  ETV
vector 1703  CAIN.ueD2DTx[0].tcp  "receive window"  ETV
vector 1706  CAIN.ueD2DTx[0].tcp  "sent ack"  ETV
vector 205  CAIN.ueD2DTx[0].nic.pdcpRrc  receivedPacketFromUpperLayer:vector(packetBytes)  ETV
attr interpolationmode  none
attr source  receivedPacketFromUpperLayer
vector 208  CAIN.ueD2DTx[0].nic.pdcpRrc  sentPacketToLowerLayer:vector(packetBytes)  ETV
attr interpolationmode  none
attr source  sentPacketToLowerLayer
vector 209  CAIN.ueD2DTx[0].nic.mac  receivedPacketFromUpperLayer:vector(packetBytes)  ETV
attr interpolationmode  none
attr source  receivedPacketFromUpperLayer
vector 1741  CAIN.ueD2DTx[17].tcp  tcpRcvQueueBytes  ETV
vector 1728  CAIN.ueD2DTx[17].tcp  "advertised window"  ETV
vector 1727  CAIN.ueD2DTx[17].tcp  "receive window"  ETV
vector 1730  CAIN.ueD2DTx[17].tcp  "sent ack"  ETV
vector 749  CAIN.ueD2DTx[17].nic.pdcpRrc  receivedPacketFromUpperLayer:vector(packetBytes)  ETV
attr interpolationmode  none
attr source  receivedPacketFromUpperLayer
vector 752  CAIN.ueD2DTx[17].nic.pdcpRrc  sentPacketToLowerLayer:vector(packetBytes)  ETV
attr interpolationmode  none
attr source  sentPacketToLowerLayer
vector 753  CAIN.ueD2DTx[17].nic.mac  receivedPacketFromUpperLayer:vector(packetBytes)  ETV
attr interpolationmode  none
attr source  receivedPacketFromUpperLayer
vector 756  CAIN.ueD2DTx[17].nic.mac  sentPacketToLowerLayer:vector(packetBytes)  ETV
attr interpolationmode  none
attr source  sentPacketToLowerLayer
vector 754  CAIN.ueD2DTx[17].nic.mac  receivedPacketFromLowerLayer:vector(packetBytes)  ETV
attr interpolationmode  none
attr source  receivedPacketFromLowerLayer
vector 1765  CAIN.ueD2DTx[2].tcp  tcpRcvQueueBytes  ETV
vector 1752  CAIN.ueD2DTx[2].tcp  "advertised window"  ETV
vector 1751  CAIN.ueD2DTx[2].tcp  "receive window"  ETV
vector 1754  CAIN.ueD2DTx[2].tcp  "sent ack"  ETV
vector 269  CAIN.ueD2DTx[2].nic.pdcpRrc  receivedPacketFromUpperLayer:vector(packetBytes)  ETV
attr interpolationmode  none
attr source  receivedPacketFromUpperLayer
vector 272  CAIN.ueD2DTx[2].nic.pdcpRrc  sentPacketToLowerLayer:vector(packetBytes)  ETV
attr interpolationmode  none
attr source  sentPacketToLowerLayer
vector 273  CAIN.ueD2DTx[2].nic.mac  receivedPacketFromUpperLayer:vector(packetBytes)  ETV
attr interpolationmode  none
attr source  receivedPacketFromUpperLayer
vector 276  CAIN.ueD2DTx[2].nic.mac  sentPacketToLowerLayer:vector(packetBytes)  ETV
attr interpolationmode  none
attr source  sentPacketToLowerLayer
vector 274  CAIN.ueD2DTx[2].nic.mac  receivedPacketFromLowerLayer:vector(packetBytes)  ETV
attr interpolationmode  none
attr source  receivedPacketFromLowerLayer
vector 1789  CAIN.ueD2DTx[19].tcp  tcpRcvQueueBytes  ETV
vector 1776  CAIN.ueD2DTx[19].tcp  "advertised window"  ETV
vector 1775  CAIN.ueD2DTx[19].tcp  "receive window"  ETV
vector 1778  CAIN.ueD2DTx[19].tcp  "sent ack"  ETV
vector 813  CAIN.ueD2DTx[19].nic.pdcpRrc  receivedPacketFromUpperLayer:vector(packetBytes)  ETV
attr interpolationmode  none
attr source  receivedPacketFromUpperLayer
vector 816  CAIN.ueD2DTx[19].nic.pdcpRrc  sentPacketToLowerLayer:vector(packetBytes)  ETV
attr interpolationmode  none
attr source  sentPacketToLowerLayer
vector 817  CAIN.ueD2DTx[19].nic.mac  receivedPacketFromUpperLayer:vector(packetBytes)  ETV
attr interpolationmode  none
attr source  receivedPacketFromUpperLayer
vector 275  CAIN.ueD2DTx[2].nic.mac  sentPacketToUpperLayer:vector(packetBytes)  ETV
attr interpolationmode  none
attr source  sentPacketToUpperLayer
vector 827  CAIN.ueD2DTx[19].nic.mac  CainHopMessageSent:vector  ETV
attr interpolationmode  none
attr title  "# of Sent CAIN hop message, vector"
vector 820  CAIN.ueD2DTx[19].nic.mac  sentPacketToLowerLayer:vector(packetBytes)  ETV
attr interpolationmode  none
attr source  sentPacketToLowerLayer
vector 262  CAIN.ueD2DTx[1].nic.phy  averageCqiD2Dvect:vector  ETV
attr source  averageCqiD2Dvect
attr title  "Average Cqi reported in D2D, vector"
attr unit  cqi
vector 243  CAIN.ueD2DTx[1].nic.mac  sentPacketToUpperLayer:vector(packetBytes)  ETV
attr interpolationmode  none
attr source  sentPacketToUpperLayer
vector 238  CAIN.ueD2DTx[1].nic.pdcpRrc  receivedPacketFromLowerLayer:vector(packetBytes)  ETV
attr interpolationmode  none
attr source  receivedPacketFromLowerLayer
vector 239  CAIN.ueD2DTx[1].nic.pdcpRrc  sentPacketToUpperLayer:vector(packetBytes)  ETV
attr interpolationmode  none
attr source  sentPacketToUpperLayer
vector 722  CAIN.ueD2DTx[16].nic.mac  receivedPacketFromLowerLayer:vector(packetBytes)  ETV
attr interpolationmode  none
attr source  receivedPacketFromLowerLayer
vector 173  CAIN.eNodeB1.nic.phy  averageCqiUlvect:vector  ETV
attr source  averageCqiUlvect
attr title  "Average Cqi reported in UL, vector"
attr unit  cqi
vector 157  CAIN.eNodeB1.nic.mac  measuredItbs:vector  ETV
attr source  measuredItbs
attr title  "TBS index, vector"
attr unit  ""
vector 723  CAIN.ueD2DTx[16].nic.mac  sentPacketToUpperLayer:vector(packetBytes)  ETV
attr interpolationmode  none
attr source  sentPacketToUpperLayer
vector 230  CAIN.ueD2DTx[0].nic.phy  averageCqiD2Dvect:vector  ETV
attr source  averageCqiD2Dvect
attr title  "Average Cqi reported in D2D, vector"
attr unit  cqi
8	0	0	0
9	0	0	0
24	0	0	0
25	0	0	0
35	0	0	0
36	0	0	0
56	0	0	0
57	0	0	0
67	0	0	0
68	0	0	0
78	0	0	0
79	0	0	0
91	2658	0.047	44
91	3005	0.052	44
91	3396	0.057	44
91	6782	0.11	44
92	2653	0.047	45
92	3000	0.052	45
92	3391	0.057	45
92	6777	0.11	45
93	2653	0.047	44
93	3000	0.052	44
93	3391	0.057	44
93	6777	0.11	44
94	2658	0.047	45
94	3005	0.052	45
94	3396	0.057	45
94	6782	0.11	45
95	2661	0.047	45
95	2733	0.048	47
95	3008	0.052	45
95	3067	0.053	47
95	3399	0.057	45
95	3519	0.058	47
95	6785	0.11	45
95	6886	0.111	47
96	382	0.002	0
96	385	0.002	0
96	388	0.002	0
96	391	0.002	0
96	394	0.002	0
96	397	0.002	0
96	400	0.002	0
96	403	0.002	0
96	406	0.002	0
96	409	0.002	0
96	412	0.002	0
96	415	0.002	0
96	418	0.002	0
96	421	0.002	0
96	424	0.002	0
96	427	0.002	0
96	430	0.002	0
96	433	0.002	0
96	436	0.002	0
96	439	0.002	0
96	739	0.008	0
96	742	0.008	0
96	745	0.008	0
96	748	0.008	0
96	751	0.008	0
96	754	0.008	0
96	757	0.008	0
96	760	0.008	0
96	763	0.008	0
96	766	0.008	0
96	1004	0.014	0
96	1007	0.014	0
96	1010	0.014	0
96	1013	0.014	0
96	1016	0.014	0
96	1019	0.014	0
96	1022	0.014	0
96	1025	0.014	0
96	1028	0.014	0
96	1031	0.014	0
96	1063	0.015	0
96	1272	0.02	0
96	1275	0.02	0
96	1278	0.02	0
96	1281	0.02	0
96	1284	0.02	0
96	1287	0.02	0
96	1290	0.02	0
96	1293	0.02	0
96	1296	0.02	0
96	1299	0.02	0
96	1302	0.02	0
96	1511	0.025	0
96	1540	0.026	0
96	1543	0.026	0
96	1546	0.026	0
96	1549	0.026	0
96	1552	0.026	0
96	1555	0.026	0
96	1558	0.026	0
96	1561	0.026	0
96	1564	0.026	0
96	1567	0.026	0
96	1715	0.03	0
96	1794	0.031	0
96	1825	0.032	0
96	1828	0.032	0
96	1831	0.032	0
96	1834	0.032	0
96	1837	0.032	0
96	1840	0.032	0
96	1843	0.032	0
96	1846	0.032	0
96	1849	0.032	0
96	1852	0.032	0
96	1923	0.034	0
96	1970	0.035	0
96	2024	0.036	0
96	2111	0.037	0
96	2154	0.038	0
96	2157	0.038	0
96	2160	0.038	0
96	2163	0.038	0
96	2166	0.038	0
96	2169	0.038	0
96	2172	0.038	0
96	2175	0.038	0
96	2178	0.038	0
96	2181	0.038	0
96	2184	0.038	0
96	2217	0.039	0
96	2259	0.04	0
96	2262	0.04	0
96	2298	0.041	0
96	2362	0.042	0
96	2367	0.042	0
96	2472	0.043	0
96	2511	0.044	0
96	2514	0.044	0
96	2517	0.044	0
96	2520	0.044	0
96	2523	0.044	0
96	2526	0.044	0
96	2529	0.044	0
96	2532	0.044	0
96	2535	0.044	0
96	2538	0.044	0
96	2544	0.044	0
96	2556	0.044	0
96	2586	0.045	0
96	2594	0.045	0
96	2597	0.045	0
96	2600	0.045	0
96	2639	0.046	0
96	2700	0.047	0
96	2706	0.047	0
96	2708	0.047	0
96	2775	0.048	0
96	2780	0.048	0
96	2861	0.049	0
96	2875	0.049	0
96	2877	0.049	0
96	2907	0.05	0
96	2910	0.05	0
96	2913	0.05	0
96	2916	0.05	0
96	2919	0.05	0
96	2922	0.05	0
96	2925	0.05	0
96	2928	0.05	0
96	2931	0.05	0
96	2934	0.05	0
96	2942	0.05	0
96	2945	0.05	0
96	2948	0.05	0
96	2984	0.051	0
96	3058	0.052	0
96	3060	0.052	0
96	3062	0.052	0
96	3109	0.053	0
96	3111	0.053	0
96	3113	0.053	0
96	3116	0.053	0
96	3179	0.054	0
96	3263	0.055	0
96	3266	0.055	0
96	3300	0.056	0
96	3303	0.056	0
96	3306	0.056	0
96	3309	0.056	0
96	3312	0.056	0
96	3315	0.056	0
96	3318	0.056	0
96	3321	0.056	0
96	3324	0.056	0
96	3327	0.056	0
96	3333	0.056	0
96	3342	0.056	0
96	3442	0.057	0
96	3444	0.057	0
96	3552	0.058	0
96	3554	0.058	0
96	3651	0.06	0
96	3654	0.06	0
96	3745	0.062	0
96	3748	0.062	0
96	3751	0.062	0
96	3760	0.062	0
96	3763	0.062	0
96	3766	0.062	0
96	3769	0.062	0
96	3772	0.062	0
96	3775	0.062	0
96	3792	0.062	0
96	3795	0.062	0
96	3798	0.062	0
96	3800	0.062	0
96	3870	0.063	0
96	3944	0.065	0
96	3947	0.065	0
96	3996	0.066	0
96	4054	0.067	0
96	4056	0.067	0
96	4095	0.068	0
96	4098	0.068	0
96	4101	0.068	0
96	4110	0.068	0
96	4113	0.068	0
96	4116	0.068	0
96	4119	0.068	0
96	4122	0.068	0
96	4125	0.068	0
96	4142	0.068	0
96	4145	0.068	0
96	4264	0.07	0
96	4267	0.07	0
96	4307	0.071	0
96	4310	0.071	0
96	4383	0.072	0
96	4385	0.072	0
96	4438	0.073	0
96	4441	0.073	0
96	4443	0.073	0
96	4473	0.074	0
96	4476	0.074	0
96	4479	0.074	0
96	4488	0.074	0
96	4491	0.074	0
96	4494	0.074	0
96	4497	0.074	0
96	4500	0.074	0
96	4503	0.074	0
96	4520	0.074	0
96	4605	0.075	0
96	4608	0.075	0
96	4638	0.076	0
96	4641	0.076	0
96	4685	0.077	0
96	4687	0.077	0
96	4737	0.078	0
96	4740	0.078	0
96	4742	0.078	0
96	4826	0.08	0
96	4829	0.08	0
96	4832	0.08	0
96	4841	0.08	0
96	4844	0.08	0
96	4847	0.08	0
96	4850	0.08	0
96	4853	0.08	0
96	4856	0.08	0
96	4873	0.08	0
96	4882	0.08	0
96	4885	0.08	0
96	4963	0.081	0
96	4966	0.081	0
96	5010	0.082	0
96	5012	0.082	0
96	5042	0.083	0
96	5045	0.083	0
96	5047	0.083	0
96	5157	0.085	0
96	5160	0.085	0
96	5190	0.086	0
96	5193	0.086	0
96	5196	0.086	0
96	5205	0.086	0
96	5208	0.086	0
96	5211	0.086	0
96	5214	0.086	0
96	5217	0.086	0
96	5220	0.086	0
96	5237	0.086	0
96	5240	0.086	0
96	5243	0.086	0
96	5335	0.087	0
96	5337	0.087	0
96	5367	0.088	0
96	5370	0.088	0
96	5372	0.088	0
96	5474	0.09	0
96	5483	0.09	0
96	5486	0.09	0
96	5542	0.091	0
96	5545	0.091	0
96	5580	0.092	0
96	5583	0.092	0
96	5586	0.092	0
96	5595	0.092	0
96	5598	0.092	0
96	5601	0.092	0
96	5604	0.092	0
96	5607	0.092	0
96	5610	0.092	0
96	5627	0.092	0
96	5643	0.092	0
96	5645	0.092	0
96	5717	0.093	0
96	5720	0.093	0
96	5722	0.093	0
96	5759	0.094	0
96	5790	0.095	0
96	5799	0.095	0
96	5802	0.095	0
96	5805	0.095	0
96	5866	0.096	0
96	5869	0.096	0
96	5931	0.097	0
96	5940	0.097	0
96	5942	0.097	0
96	5975	0.098	0
96	5978	0.098	0
96	5981	0.098	0
96	5990	0.098	0
96	5993	0.098	0
96	5996	0.098	0
96	5999	0.098	0
96	6002	0.098	0
96	6005	0.098	0
96	6022	0.098	0
96	6029	0.098	0
96	6034	0.098	0
96	6036	0.098	0
96	6120	0.099	0
96	6174	0.1	0
96	6177	0.1	0
96	6180	0.1	0
96	6213	0.101	0
96	6215	0.101	0
96	6218	0.101	0
96	6278	0.102	0
96	6290	0.102	0
96	6292	0.102	0
96	6354	0.103	0
96	6359	0.103	0
96	6362	0.103	0
96	6364	0.103	0
96	6399	0.104	0
96	6402	0.104	0
96	6405	0.104	0
96	6414	0.104	0
96	6417	0.104	0
96	6420	0.104	0
96	6423	0.104	0
96	6426	0.104	0
96	6429	0.104	0
96	6446	0.104	0
96	6548	0.105	0
96	6551	0.105	0
96	6554	0.105	0
96	6556	0.105	0
96	6594	0.106	0
96	6596	0.106	0
96	6599	0.106	0
96	6637	0.107	0
96	6648	0.107	0
96	6650	0.107	0
96	6700	0.108	0
96	6703	0.108	0
96	6706	0.108	0
96	6708	0.108	0
96	6813	0.11	0
96	6816	0.11	0
96	6819	0.11	0
96	6828	0.11	0
96	6831	0.11	0
96	6834	0.11	0
96	6837	0.11	0
96	6840	0.11	0
96	6843	0.11	0
96	6860	0.11	0
96	6873	0.11	0
96	6876	0.11	0
96	6879	0.11	0
96	6881	0.11	0
96	6921	0.111	0
96	6924	0.111	0
96	6973	0.112	0
96	6975	0.112	0
96	7005	0.113	0
96	7008	0.113	0
96	7011	0.113	0
96	7013	0.113	0
96	7135	0.115	0
96	7138	0.115	0
96	7141	0.115	0
96	7143	0.115	0
96	7172	0.116	0
96	7175	0.116	0
96	7178	0.116	0
96	7187	0.116	0
96	7190	0.116	0
96	7193	0.116	0
96	7196	0.116	0
96	7199	0.116	0
96	7202	0.116	0
96	7219	0.116	0
96	7222	0.116	0
96	7227	0.116	0
96	7230	0.116	0
96	7277	0.117	0
96	7279	0.117	0
96	7309	0.118	0
96	7312	0.118	0
96	7315	0.118	0
96	7317	0.118	0
96	7412	0.12	0
96	7415	0.12	0
96	7418	0.12	0
96	7420	0.12	0
96	7472	0.121	0
96	7475	0.121	0
96	7510	0.122	0
96	7513	0.122	0
96	7516	0.122	0
96	7525	0.122	0
96	7528	0.122	0
96	7531	0.122	0
96	7534	0.122	0
96	7537	0.122	0
96	7540	0.122	0
96	7557	0.122	0
96	7572	0.122	0
96	7574	0.122	0
96	7604	0.123	0
96	7607	0.123	0
96	7610	0.123	0
96	7612	0.123	0
96	7687	0.125	0
96	7690	0.125	0
96	7693	0.125	0
96	7695	0.125	0
96	7747	0.126	0
96	7750	0.126	0
96	7817	0.127	0
96	7819	0.127	0
96	7849	0.128	0
96	7852	0.128	0
96	7855	0.128	0
96	7864	0.128	0
96	7867	0.128	0
96	7870	0.128	0
96	7873	0.128	0
96	7876	0.128	0
96	7879	0.128	0
96	7896	0.128	0
96	7899	0.128	0
96	7902	0.128	0
96	7905	0.128	0
96	7907	0.128	0
96	7982	0.13	0
96	7985	0.13	0
96	7988	0.13	0
96	7990	0.13	0
96	8022	0.131	0
96	8025	0.131	0
96	8092	0.132	0
96	8094	0.132	0
96	8144	0.133	0
96	8147	0.133	0
96	8150	0.133	0
96	8152	0.133	0
96	8182	0.134	0
96	8185	0.134	0
96	8188	0.134	0
96	8197	0.134	0
96	8200	0.134	0
96	8203	0.134	0
96	8206	0.134	0
96	8209	0.134	0
96	8212	0.134	0
96	8229	0.134	0
96	8277	0.135	0
96	8280	0.135	0
96	8283	0.135	0
96	8285	0.135	0
96	8317	0.136	0
96	8320	0.136	0
96	8367	0.137	0
96	8369	0.137	0
96	8419	0.138	0
96	8422	0.138	0
96	8425	0.138	0
96	8427	0.138	0
96	8516	0.14	0
96	8519	0.14	0
96	8522	0.14	0
96	8531	0.14	0
96	8534	0.14	0
96	8537	0.14	0
96	8540	0.14	0
96	8543	0.14	0
96	8546	0.14	0
96	8563	0.14	0
96	8572	0.14	0
96	8575	0.14	0
96	8578	0.14	0
96	8580	0.14	0
96	8612	0.141	0
96	8615	0.141	0
96	8662	0.142	0
96	8664	0.142	0
96	8694	0.143	0
96	8697	0.143	0
96	8700	0.143	0
96	8702	0.143	0
96	8817	0.145	0
96	8820	0.145	0
96	8823	0.145	0
96	8825	0.145	0
96	8854	0.146	0
96	8857	0.146	0
96	8860	0.146	0
96	8869	0.146	0
96	8872	0.146	0
96	8875	0.146	0
96	8878	0.146	0
96	8881	0.146	0
96	8884	0.146	0
96	8901	0.146	0
96	8907	0.146	0
96	8910	0.146	0
96	8957	0.147	0
96	8959	0.147	0
96	8989	0.148	0
96	8992	0.148	0
96	8995	0.148	0
96	8997	0.148	0
96	9092	0.15	0
96	9095	0.15	0
96	9098	0.15	0
96	9100	0.15	0
96	9152	0.151	0
96	9155	0.151	0
96	9190	0.152	0
96	9193	0.152	0
96	9196	0.152	0
96	9205	0.152	0
96	9208	0.152	0
96	9211	0.152	0
96	9214	0.152	0
96	9217	0.152	0
96	9220	0.152	0
96	9237	0.152	0
96	9252	0.152	0
96	9254	0.152	0
96	9284	0.153	0
96	9287	0.153	0
96	9290	0.153	0
96	9292	0.153	0
96	9367	0.155	0
96	9370	0.155	0
96	9373	0.155	0
96	9375	0.155	0
96	9427	0.156	0
96	9430	0.156	0
96	9497	0.157	0
96	9499	0.157	0
96	9529	0.158	0
96	9532	0.158	0
96	9535	0.158	0
96	9544	0.158	0
96	9547	0.158	0
96	9550	0.158	0
96	9553	0.158	0
96	9556	0.158	0
96	9559	0.158	0
96	9576	0.158	0
96	9579	0.158	0
96	9582	0.158	0
96	9585	0.158	0
96	9587	0.158	0
96	9662	0.16	0
96	9665	0.16	0
96	9668	0.16	0
96	9670	0.16	0
96	9702	0.161	0
96	9705	0.161	0
96	9772	0.162	0
96	9774	0.162	0
96	9824	0.163	0
96	9827	0.163	0
96	9830	0.163	0
96	9832	0.163	0
96	9862	0.164	0
96	9865	0.164	0
96	9868	0.164	0
96	9877	0.164	0
96	9880	0.164	0
96	9883	0.164	0
96	9886	0.164	0
96	9889	0.164	0
96	9892	0.164	0
96	9909	0.164	0
96	9957	0.165	0
96	9960	0.165	0
96	9963	0.165	0
96	9965	0.165	0
96	9997	0.166	0
96	10000	0.166	0
96	10047	0.167	0
96	10049	0.167	0
96	10099	0.168	0
96	10102	0.168	0
96	10105	0.168	0
96	10107	0.168	0
96	10196	0.17	0
96	10199	0.17	0
96	10202	0.17	0
96	10211	0.17	0
96	10214	0.17	0
96	10217	0.17	0
96	10220	0.17	0
96	10223	0.17	0
96	10226	0.17	0
96	10243	0.17	0
96	10252	0.17	0
96	10255	0.17	0
96	10258	0.17	0
96	10260	0.17	0
96	10292	0.171	0
96	10295	0.171	0
96	10342	0.172	0
96	10344	0.172	0
96	10374	0.173	0
96	10377	0.173	0
96	10380	0.173	0
96	10382	0.173	0
96	10497	0.175	0
96	10500	0.175	0
96	10503	0.175	0
96	10505	0.175	0
96	10534	0.176	0
96	10537	0.176	0
96	10540	0.176	0
96	10549	0.176	0
96	10552	0.176	0
96	10555	0.176	0
96	10558	0.176	0
96	10561	0.176	0
96	10564	0.176	0
96	10581	0.176	0
96	10587	0.176	0
96	10590	0.176	0
96	10637	0.177	0
96	10639	0.177	0
96	10669	0.178	0
96	10672	0.178	0
96	10675	0.178	0
96	10677	0.178	0
96	10772	0.18	0
96	10775	0.18	0
96	10778	0.18	0
96	10780	0.18	0
96	10832	0.181	0
96	10835	0.181	0
96	10870	0.182	0
96	10873	0.182	0
96	10876	0.182	0
96	10885	0.182	0
96	10888	0.182	0
96	10891	0.182	0
96	10894	0.182	0
96	10897	0.182	0
96	10900	0.182	0
96	10917	0.182	0
96	10932	0.182	0
96	10934	0.182	0
96	10964	0.183	0
96	10967	0.183	0
96	10970	0.183	0
96	10972	0.183	0
96	11047	0.185	0
96	11050	0.185	0
96	11053	0.185	0
96	11055	0.185	0
96	11107	0.186	0
96	11110	0.186	0
96	11177	0.187	0
96	11179	0.187	0
96	11209	0.188	0
96	11212	0.188	0
96	11215	0.188	0
96	11224	0.188	0
96	11227	0.188	0
96	11230	0.188	0
96	11233	0.188	0
96	11236	0.188	0
96	11239	0.188	0
96	11256	0.188	0
96	11259	0.188	0
96	11262	0.188	0
96	11265	0.188	0
96	11267	0.188	0
96	11342	0.19	0
96	11345	0.19	0
96	11348	0.19	0
96	11350	0.19	0
96	11382	0.191	0
96	11385	0.191	0
96	11452	0.192	0
96	11454	0.192	0
96	11504	0.193	0
96	11507	0.193	0
96	11510	0.193	0
96	11512	0.193	0
96	11542	0.194	0
96	11545	0.194	0
96	11548	0.194	0
96	11557	0.194	0
96	11560	0.194	0
96	11563	0.194	0
96	11566	0.194	0
96	11569	0.194	0
96	11572	0.194	0
96	11589	0.194	0
96	11637	0.195	0
96	11640	0.195	0
96	11643	0.195	0
96	11645	0.195	0
96	11677	0.196	0
96	11680	0.196	0
96	11727	0.197	0
96	11729	0.197	0
96	11779	0.198	0
96	11782	0.198	0
96	11785	0.198	0
96	11787	0.198	0
96	11876	0.2	0
96	11879	0.2	0
96	11882	0.2	0
96	11891	0.2	0
96	11894	0.2	0
96	11897	0.2	0
96	11900	0.2	0
96	11903	0.2	0
96	11906	0.2	0
96	11923	0.2	0
96	11932	0.2	0
96	11935	0.2	0
96	11938	0.2	0
96	11940	0.2	0
96	11972	0.201	0
96	11975	0.201	0
96	12022	0.202	0
96	12024	0.202	0
96	12054	0.203	0
96	12057	0.203	0
96	12060	0.203	0
96	12062	0.203	0
96	12177	0.205	0
96	12180	0.205	0
96	12183	0.205	0
96	12185	0.205	0
96	12214	0.206	0
96	12217	0.206	0
96	12220	0.206	0
96	12229	0.206	0
96	12232	0.206	0
96	12235	0.206	0
96	12238	0.206	0
96	12241	0.206	0
96	12244	0.206	0
96	12261	0.206	0
96	12267	0.206	0
96	12270	0.206	0
96	12317	0.207	0
96	12319	0.207	0
96	12764	0.208	0
96	12767	0.208	0
96	12770	0.208	0
96	12772	0.208	0
96	12867	0.21	0
96	12870	0.21	0
96	12873	0.21	0
96	12875	0.21	0
96	12927	0.211	0
96	12930	0.211	0
96	12965	0.212	0
96	12968	0.212	0
96	12971	0.212	0
96	12980	0.212	0
96	12983	0.212	0
96	12986	0.212	0
96	12989	0.212	0
96	12992	0.212	0
96	12995	0.212	0
96	13012	0.212	0
96	13027	0.212	0
96	13029	0.212	0
96	13059	0.213	0
96	13062	0.213	0
96	13065	0.213	0
96	13067	0.213	0
96	13142	0.215	0
96	13145	0.215	0
96	13148	0.215	0
96	13150	0.215	0
96	13202	0.216	0
96	13205	0.216	0
96	13272	0.217	0
96	13274	0.217	0
96	13304	0.218	0
96	13307	0.218	0
96	13310	0.218	0
96	13319	0.218	0
96	13322	0.218	0
96	13325	0.218	0
96	13328	0.218	0
96	13331	0.218	0
96	13334	0.218	0
96	13351	0.218	0
96	13354	0.218	0
96	13357	0.218	0
96	13360	0.218	0
96	13362	0.218	0
96	13437	0.22	0
96	13440	0.22	0
96	13443	0.22	0
96	13445	0.22	0
96	13477	0.221	0
96	13480	0.221	0
96	13547	0.222	0
96	13549	0.222	0
96	13599	0.223	0
96	13602	0.223	0
96	13605	0.223	0
96	13607	0.223	0
96	13637	0.224	0
96	13640	0.224	0
96	13643	0.224	0
96	13652	0.224	0
96	13655	0.224	0
96	13658	0.224	0
96	13661	0.224	0
96	13664	0.224	0
96	13667	0.224	0
96	13684	0.224	0
96	13732	0.225	0
96	13735	0.225	0
96	13738	0.225	0
96	13740	0.225	0
96	13772	0.226	0
96	13775	0.226	0
96	13822	0.227	0
96	13824	0.227	0
96	13874	0.228	0
96	13877	0.228	0
96	13880	0.228	0
96	13882	0.228	0
96	13971	0.23	0
96	13974	0.23	0
96	13977	0.23	0
96	13986	0.23	0
96	13989	0.23	0
96	13992	0.23	0
96	13995	0.23	0
96	13998	0.23	0
96	14001	0.23	0
96	14018	0.23	0
96	14027	0.23	0
96	14030	0.23	0
96	14033	0.23	0
96	14035	0.23	0
96	14067	0.231	0
96	14070	0.231	0
96	14117	0.232	0
96	14119	0.232	0
96	14149	0.233	0
96	14152	0.233	0
96	14155	0.233	0
96	14157	0.233	0
96	14272	0.235	0
96	14275	0.235	0
96	14278	0.235	0
96	14280	0.235	0
96	14309	0.236	0
96	14312	0.236	0
96	14315	0.236	0
96	14324	0.236	0
96	14327	0.236	0
96	14330	0.236	0
96	14333	0.236	0
96	14336	0.236	0
96	14339	0.236	0
96	14356	0.236	0
96	14362	0.236	0
96	14365	0.236	0
96	14412	0.237	0
96	14414	0.237	0
96	14444	0.238	0
96	14447	0.238	0
96	14450	0.238	0
96	14452	0.238	0
96	14547	0.24	0
96	14550	0.24	0
96	14553	0.24	0
96	14555	0.24	0
96	14607	0.241	0
96	14610	0.241	0
96	14645	0.242	0
96	14648	0.242	0
96	14651	0.242	0
96	14660	0.242	0
96	14663	0.242	0
96	14666	0.242	0
96	14669	0.242	0
96	14672	0.242	0
96	14675	0.242	0
96	14692	0.242	0
96	14707	0.242	0
96	14709	0.242	0
96	14739	0.243	0
96	14742	0.243	0
96	14745	0.243	0
96	14747	0.243	0
96	14822	0.245	0
96	14825	0.245	0
96	14828	0.245	0
96	14830	0.245	0
96	14882	0.246	0
96	14885	0.246	0
96	14952	0.247	0
96	14954	0.247	0
96	14984	0.248	0
96	14987	0.248	0
96	14990	0.248	0
96	14999	0.248	0
96	15002	0.248	0
96	15005	0.248	0
96	15008	0.248	0
96	15011	0.248	0
96	15014	0.248	0
96	15031	0.248	0
96	15034	0.248	0
96	15037	0.248	0
96	15040	0.248	0
96	15042	0.248	0
96	15117	0.25	0
96	15120	0.25	0
96	15123	0.25	0
96	15125	0.25	0
96	15157	0.251	0
96	15160	0.251	0
96	15227	0.252	0
96	15229	0.252	0
96	15279	0.253	0
96	15282	0.253	0
96	15285	0.253	0
96	15287	0.253	0
96	15317	0.254	0
96	15320	0.254	0
96	15323	0.254	0
96	15332	0.254	0
96	15335	0.254	0
96	15338	0.254	0
96	15341	0.254	0
96	15344	0.254	0
96	15347	0.254	0
96	15364	0.254	0
96	15412	0.255	0
96	15415	0.255	0
96	15418	0.255	0
96	15420	0.255	0
96	15452	0.256	0
96	15455	0.256	0
96	15502	0.257	0
96	15504	0.257	0
96	15969	0.258	0
96	15972	0.258	0
96	15975	0.258	0
96	15977	0.258	0
96	16066	0.26	0
96	16069	0.26	0
96	16072	0.26	0
96	16081	0.26	0
96	16084	0.26	0
96	16087	0.26	0
96	16090	0.26	0
96	16093	0.26	0
96	16096	0.26	0
96	16113	0.26	0
96	16122	0.26	0
96	16125	0.26	0
96	16128	0.26	0
96	16130	0.26	0
96	16162	0.261	0
96	16165	0.261	0
96	16212	0.262	0
96	16214	0.262	0
96	16244	0.263	0
96	16247	0.263	0
96	16250	0.263	0
96	16252	0.263	0
96	16367	0.265	0
96	16370	0.265	0
96	16373	0.265	0
96	16375	0.265	0
96	16404	0.266	0
96	16407	0.266	0
96	16410	0.266	0
96	16419	0.266	0
96	16422	0.266	0
96	16425	0.266	0
96	16428	0.266	0
96	16431	0.266	0
96	16434	0.266	0
96	16451	0.266	0
96	16457	0.266	0
96	16460	0.266	0
96	16507	0.267	0
96	16509	0.267	0
96	16539	0.268	0
96	16542	0.268	0
96	16545	0.268	0
96	16547	0.268	0
96	16642	0.27	0
96	16645	0.27	0
96	16648	0.27	0
96	16650	0.27	0
96	16702	0.271	0
96	16705	0.271	0
96	16740	0.272	0
96	16743	0.272	0
96	16746	0.272	0
96	16755	0.272	0
96	16758	0.272	0
96	16761	0.272	0
96	16764	0.272	0
96	16767	0.272	0
96	16770	0.272	0
96	16787	0.272	0
96	16802	0.272	0
96	16804	0.272	0
96	16834	0.273	0
96	16837	0.273	0
96	16840	0.273	0
96	16842	0.273	0
96	16917	0.275	0
96	16920	0.275	0
96	16923	0.275	0
96	16925	0.275	0
96	16977	0.276	0
96	16980	0.276	0
96	17047	0.277	0
96	17049	0.277	0
96	17079	0.278	0
96	17082	0.278	0
96	17085	0.278	0
96	17094	0.278	0
96	17097	0.278	0
96	17100	0.278	0
96	17103	0.278	0
96	17106	0.278	0
96	17109	0.278	0
96	17126	0.278	0
96	17129	0.278	0
96	17132	0.278	0
96	17135	0.278	0
96	17137	0.278	0
96	17212	0.28	0
96	17215	0.28	0
96	17218	0.28	0
96	17220	0.28	0
96	17252	0.281	0
96	17255	0.281	0
96	17322	0.282	0
96	17324	0.282	0
96	17374	0.283	0
96	17377	0.283	0
96	17380	0.283	0
96	17382	0.283	0
96	17412	0.284	0
96	17415	0.284	0
96	17418	0.284	0
96	17427	0.284	0
96	17430	0.284	0
96	17433	0.284	0
96	17436	0.284	0
96	17439	0.284	0
96	17442	0.284	0
96	17459	0.284	0
96	17507	0.285	0
96	17510	0.285	0
96	17513	0.285	0
96	17515	0.285	0
96	17547	0.286	0
96	17550	0.286	0
96	17597	0.287	0
96	17599	0.287	0
96	17649	0.288	0
96	17652	0.288	0
96	17655	0.288	0
96	17657	0.288	0
96	17746	0.29	0
96	17749	0.29	0
96	17752	0.29	0
96	17761	0.29	0
96	17764	0.29	0
96	17767	0.29	0
96	17770	0.29	0
96	17773	0.29	0
96	17776	0.29	0
96	17793	0.29	0
96	17802	0.29	0
96	17805	0.29	0
96	17808	0.29	0
96	17810	0.29	0
96	17842	0.291	0
96	17845	0.291	0
96	17892	0.292	0
96	17894	0.292	0
96	17924	0.293	0
96	17927	0.293	0
96	17930	0.293	0
96	17932	0.293	0
96	18047	0.295	0
96	18050	0.295	0
96	18053	0.295	0
96	18055	0.295	0
96	18084	0.296	0
96	18087	0.296	0
96	18090	0.296	0
96	18099	0.296	0
96	18102	0.296	0
96	18105	0.296	0
96	18108	0.296	0
96	18111	0.296	0
96	18114	0.296	0
96	18131	0.296	0
96	18137	0.296	0
96	18140	0.296	0
96	18187	0.297	0
96	18189	0.297	0
96	18219	0.298	0
96	18222	0.298	0
96	18225	0.298	0
96	18227	0.298	0
96	18322	0.3	0
96	18325	0.3	0
96	18328	0.3	0
96	18330	0.3	0
96	18382	0.301	0
96	18385	0.301	0
96	18420	0.302	0
96	18423	0.302	0
96	18426	0.302	0
96	18435	0.302	0
96	18438	0.302	0
96	18441	0.302	0
96	18444	0.302	0
96	18447	0.302	0
96	18450	0.302	0
96	18467	0.302	0
96	18482	0.302	0
96	18484	0.302	0
96	18514	0.303	0
96	18517	0.303	0
96	18520	0.303	0
96	18522	0.303	0
96	18597	0.305	0
96	18600	0.305	0
96	18603	0.305	0
96	18605	0.305	0
96	18657	0.306	0
96	18660	0.306	0
96	18727	0.307	0
96	18729	0.307	0
96	18759	0.308	0
96	18762	0.308	0
96	18765	0.308	0
96	18774	0.308	0
96	18777	0.308	0
96	18780	0.308	0
96	18783	0.308	0
96	18786	0.308	0
96	18789	0.308	0
96	18806	0.308	0
96	18809	0.308	0
96	18812	0.308	0
96	18815	0.308	0
96	18817	0.308	0
96	18892	0.31	0
96	18895	0.31	0
96	18898	0.31	0
96	18900	0.31	0
96	18932	0.311	0
96	18935	0.311	0
96	19002	0.312	0
96	19004	0.312	0
96	19054	0.313	0
96	19057	0.313	0
96	19060	0.313	0
96	19062	0.313	0
96	19092	0.314	0
96	19095	0.314	0
96	19098	0.314	0
96	19107	0.314	0
96	19110	0.314	0
96	19113	0.314	0
96	19116	0.314	0
96	19119	0.314	0
96	19122	0.314	0
96	19139	0.314	0
96	19187	0.315	0
96	19190	0.315	0
96	19193	0.315	0
96	19195	0.315	0
96	19227	0.316	0
96	19230	0.316	0
96	19277	0.317	0
96	19279	0.317	0
96	19329	0.318	0
96	19332	0.318	0
96	19335	0.318	0
96	19337	0.318	0
96	19426	0.32	0
96	19429	0.32	0
96	19432	0.32	0
96	19441	0.32	0
96	19444	0.32	0
96	19447	0.32	0
96	19450	0.32	0
96	19453	0.32	0
96	19456	0.32	0
96	19473	0.32	0
96	19482	0.32	0
96	19485	0.32	0
96	19488	0.32	0
96	19490	0.32	0
96	19522	0.321	0
96	19525	0.321	0
96	19572	0.322	0
96	19574	0.322	0
96	19604	0.323	0
96	19607	0.323	0
96	19610	0.323	0
96	19612	0.323	0
96	19727	0.325	0
96	19730	0.325	0
96	19733	0.325	0
96	19735	0.325	0
96	19764	0.326	0
96	19767	0.326	0
96	19770	0.326	0
96	19779	0.326	0
96	19782	0.326	0
96	19785	0.326	0
96	19788	0.326	0
96	19791	0.326	0
96	19794	0.326	0
96	19811	0.326	0
96	19817	0.326	0
96	19820	0.326	0
96	19867	0.327	0
96	19869	0.327	0
96	19899	0.328	0
96	19902	0.328	0
96	19905	0.328	0
96	19907	0.328	0
96	20002	0.33	0
96	20005	0.33	0
96	20008	0.33	0
96	20010	0.33	0
96	20062	0.331	0
96	20065	0.331	0
96	20100	0.332	0
96	20103	0.332	0
96	20106	0.332	0
96	20115	0.332	0
96	20118	0.332	0
96	20121	0.332	0
96	20124	0.332	0
96	20127	0.332	0
96	20130	0.332	0
96	20147	0.332	0
96	20162	0.332	0
96	20164	0.332	0
96	20194	0.333	0
96	20197	0.333	0
96	20200	0.333	0
96	20202	0.333	0
96	20277	0.335	0
96	20280	0.335	0
96	20283	0.335	0
96	20285	0.335	0
96	20337	0.336	0
96	20340	0.336	0
96	20407	0.337	0
96	20409	0.337	0
96	20439	0.338	0
96	20442	0.338	0
96	20445	0.338	0
96	20454	0.338	0
96	20457	0.338	0
96	20460	0.338	0
96	20463	0.338	0
96	20466	0.338	0
96	20469	0.338	0
96	20486	0.338	0
96	20489	0.338	0
96	20492	0.338	0
96	20495	0.338	0
96	20497	0.338	0
96	20572	0.34	0
96	20575	0.34	0
96	20578	0.34	0
96	20580	0.34	0
96	20612	0.341	0
96	20615	0.341	0
96	20682	0.342	0
96	20684	0.342	0
96	20734	0.343	0
96	20737	0.343	0
96	20740	0.343	0
96	20742	0.343	0
96	20772	0.344	0
96	20775	0.344	0
96	20778	0.344	0
96	20787	0.344	0
96	20790	0.344	0
96	20793	0.344	0
96	20796	0.344	0
96	20799	0.344	0
96	20802	0.344	0
96	20819	0.344	0
96	20867	0.345	0
96	20870	0.345	0
96	20873	0.345	0
96	20875	0.345	0
96	20907	0.346	0
96	20910	0.346	0
96	20957	0.347	0
96	20959	0.347	0
96	21009	0.348	0
96	21012	0.348	0
96	21015	0.348	0
96	21017	0.348	0
96	21106	0.35	0
96	21109	0.35	0
96	21112	0.35	0
96	21121	0.35	0
96	21124	0.35	0
96	21127	0.35	0
96	21130	0.35	0
96	21133	0.35	0
96	21136	0.35	0
96	21153	0.35	0
96	21162	0.35	0
96	21165	0.35	0
96	21168	0.35	0
96	21170	0.35	0
96	21202	0.351	0
96	21205	0.351	0
96	21252	0.352	0
96	21254	0.352	0
96	21284	0.353	0
96	21287	0.353	0
96	21290	0.353	0
96	21292	0.353	0
96	21407	0.355	0
96	21410	0.355	0
96	21413	0.355	0
96	21415	0.355	0
96	21444	0.356	0
96	21447	0.356	0
96	21450	0.356	0
96	21459	0.356	0
96	21462	0.356	0
96	21465	0.356	0
96	21468	0.356	0
96	21471	0.356	0
96	21474	0.356	0
96	21491	0.356	0
96	21497	0.356	0
96	21500	0.356	0
96	21547	0.357	0
96	21549	0.357	0
96	21579	0.358	0
96	21582	0.358	0
96	21585	0.358	0
96	21587	0.358	0
96	21682	0.36	0
96	21685	0.36	0
96	21688	0.36	0
96	21690	0.36	0
96	21742	0.361	0
96	21745	0.361	0
96	21780	0.362	0
96	21783	0.362	0
96	21786	0.362	0
96	21795	0.362	0
96	21798	0.362	0
96	21801	0.362	0
96	21804	0.362	0
96	21807	0.362	0
96	21810	0.362	0
96	21827	0.362	0
96	21842	0.362	0
96	21844	0.362	0
96	21874	0.363	0
96	21877	0.363	0
96	21880	0.363	0
96	21882	0.363	0
96	21957	0.365	0
96	21960	0.365	0
96	21963	0.365	0
96	21965	0.365	0
96	22017	0.366	0
96	22020	0.366	0
96	22087	0.367	0
96	22089	0.367	0
96	22119	0.368	0
96	22122	0.368	0
96	22125	0.368	0
96	22134	0.368	0
96	22137	0.368	0
96	22140	0.368	0
96	22143	0.368	0
96	22146	0.368	0
96	22149	0.368	0
96	22166	0.368	0
96	22169	0.368	0
96	22172	0.368	0
96	22175	0.368	0
96	22177	0.368	0
96	22252	0.37	0
96	22255	0.37	0
96	22258	0.37	0
96	22260	0.37	0
96	22292	0.371	0
96	22295	0.371	0
96	22362	0.372	0
96	22364	0.372	0
96	22414	0.373	0
96	22417	0.373	0
96	22420	0.373	0
96	22422	0.373	0
96	22452	0.374	0
96	22455	0.374	0
96	22458	0.374	0
96	22467	0.374	0
96	22470	0.374	0
96	22473	0.374	0
96	22476	0.374	0
96	22479	0.374	0
96	22482	0.374	0
96	22499	0.374	0
96	22547	0.375	0
96	22550	0.375	0
96	22553	0.375	0
96	22555	0.375	0
96	22587	0.376	0
96	22590	0.376	0
96	22637	0.377	0
96	22639	0.377	0
96	22689	0.378	0
96	22692	0.378	0
96	22695	0.378	0
96	22697	0.378	0
96	22786	0.38	0
96	22789	0.38	0
96	22792	0.38	0
96	22801	0.38	0
96	22804	0.38	0
96	22807	0.38	0
96	22810	0.38	0
96	22813	0.38	0
96	22816	0.38	0
96	22833	0.38	0
96	22842	0.38	0
96	22845	0.38	0
96	22848	0.38	0
96	22850	0.38	0
96	22882	0.381	0
96	22885	0.381	0
96	22932	0.382	0
96	22934	0.382	0
96	22964	0.383	0
96	22967	0.383	0
96	22970	0.383	0
96	22972	0.383	0
96	23087	0.385	0
96	23090	0.385	0
96	23093	0.385	0
96	23095	0.385	0
96	23124	0.386	0
96	23127	0.386	0
96	23130	0.386	0
96	23139	0.386	0
96	23142	0.386	0
96	23145	0.386	0
96	23148	0.386	0
96	23151	0.386	0
96	23154	0.386	0
96	23171	0.386	0
96	23177	0.386	0
96	23180	0.386	0
96	23227	0.387	0
96	23229	0.387	0
96	23259	0.388	0
96	23262	0.388	0
96	23265	0.388	0
96	23267	0.388	0
96	23362	0.39	0
96	23365	0.39	0
96	23368	0.39	0
96	23370	0.39	0
96	23422	0.391	0
96	23425	0.391	0
96	23460	0.392	0
96	23463	0.392	0
96	23466	0.392	0
96	23475	0.392	0
96	23478	0.392	0
96	23481	0.392	0
96	23484	0.392	0
96	23487	0.392	0
96	23490	0.392	0
96	23507	0.392	0
96	23522	0.392	0
96	23524	0.392	0
96	23554	0.393	0
96	23557	0.393	0
96	23560	0.393	0
96	23562	0.393	0
96	23637	0.395	0
96	23640	0.395	0
96	23643	0.395	0
96	23645	0.395	0
96	23697	0.396	0
96	23700	0.396	0
96	23767	0.397	0
96	23769	0.397	0
96	23799	0.398	0
96	23802	0.398	0
96	23805	0.398	0
96	23814	0.398	0
96	23817	0.398	0
96	23820	0.398	0
96	23823	0.398	0
96	23826	0.398	0
96	23829	0.398	0
96	23846	0.398	0
96	23849	0.398	0
96	23852	0.398	0
96	23855	0.398	0
96	23857	0.398	0
96	23932	0.4	0
96	23935	0.4	0
96	23938	0.4	0
96	23940	0.4	0
96	23972	0.401	0
96	23975	0.401	0
96	24042	0.402	0
96	24044	0.402	0
96	24094	0.403	0
96	24097	0.403	0
96	24100	0.403	0
96	24102	0.403	0
96	24132	0.404	0
96	24135	0.404	0
96	24138	0.404	0
96	24147	0.404	0
96	24150	0.404	0
96	24153	0.404	0
96	24156	0.404	0
96	24159	0.404	0
96	24162	0.404	0
96	24179	0.404	0
96	24227	0.405	0
96	24230	0.405	0
96	24233	0.405	0
96	24235	0.405	0
96	24267	0.406	0
96	24270	0.406	0
96	24317	0.407	0
96	24319	0.407	0
96	24377	0.408	0
96	24380	0.408	0
96	24383	0.408	0
96	24385	0.408	0
96	24474	0.41	0
96	24477	0.41	0
96	24480	0.41	0
96	24489	0.41	0
96	24492	0.41	0
96	24495	0.41	0
96	24498	0.41	0
96	24501	0.41	0
96	24504	0.41	0
96	24521	0.41	0
96	24530	0.41	0
96	24533	0.41	0
96	24536	0.41	0
96	24538	0.41	0
96	24570	0.411	0
96	24573	0.411	0
96	24620	0.412	0
96	24622	0.412	0
96	24652	0.413	0
96	24655	0.413	0
96	24658	0.413	0
96	24660	0.413	0
96	24775	0.415	0
96	24778	0.415	0
96	24781	0.415	0
96	24783	0.415	0
96	24812	0.416	0
96	24815	0.416	0
96	24818	0.416	0
96	24827	0.416	0
96	24830	0.416	0
96	24833	0.416	0
96	24836	0.416	0
96	24839	0.416	0
96	24842	0.416	0
96	24859	0.416	0
96	24865	0.416	0
96	24868	0.416	0
96	24915	0.417	0
96	24917	0.417	0
96	24947	0.418	0
96	24950	0.418	0
96	24953	0.418	0
96	24955	0.418	0
96	25050	0.42	0
96	25053	0.42	0
96	25056	0.42	0
96	25058	0.42	0
96	25110	0.421	0
96	25113	0.421	0
96	25148	0.422	0
96	25151	0.422	0
96	25154	0.422	0
96	25163	0.422	0
96	25166	0.422	0
96	25169	0.422	0
96	25172	0.422	0
96	25175	0.422	0
96	25178	0.422	0
96	25195	0.422	0
96	25210	0.422	0
96	25212	0.422	0
96	25242	0.423	0
96	25245	0.423	0
96	25248	0.423	0
96	25250	0.423	0
96	25325	0.425	0
96	25328	0.425	0
96	25331	0.425	0
96	25333	0.425	0
96	25385	0.426	0
96	25388	0.426	0
96	25455	0.427	0
96	25457	0.427	0
96	25487	0.428	0
96	25490	0.428	0
96	25493	0.428	0
96	25502	0.428	0
96	25505	0.428	0
96	25508	0.428	0
96	25511	0.428	0
96	25514	0.428	0
96	25517	0.428	0
96	25534	0.428	0
96	25537	0.428	0
96	25540	0.428	0
96	25543	0.428	0
96	25545	0.428	0
96	25620	0.43	0
96	25623	0.43	0
96	25626	0.43	0
96	25628	0.43	0
96	25660	0.431	0
96	25663	0.431	0
96	25730	0.432	0
96	25732	0.432	0
96	25782	0.433	0
96	25785	0.433	0
96	25788	0.433	0
96	25790	0.433	0
96	25820	0.434	0
96	25823	0.434	0
96	25826	0.434	0
96	25835	0.434	0
96	25838	0.434	0
96	25841	0.434	0
96	25844	0.434	0
96	25847	0.434	0
96	25850	0.434	0
96	25867	0.434	0
96	25915	0.435	0
96	25918	0.435	0
96	25921	0.435	0
96	25923	0.435	0
96	25955	0.436	0
96	25958	0.436	0
96	26005	0.437	0
96	26007	0.437	0
96	26057	0.438	0
96	26060	0.438	0
96	26063	0.438	0
96	26065	0.438	0
96	26154	0.44	0
96	26157	0.44	0
96	26160	0.44	0
96	26169	0.44	0
96	26172	0.44	0
96	26175	0.44	0
96	26178	0.44	0
96	26181	0.44	0
96	26184	0.44	0
96	26201	0.44	0
96	26210	0.44	0
96	26213	0.44	0
96	26216	0.44	0
96	26218	0.44	0
96	26250	0.441	0
96	26253	0.441	0
96	26300	0.442	0
96	26302	0.442	0
96	26332	0.443	0
96	26335	0.443	0
96	26338	0.443	0
96	26340	0.443	0
96	26455	0.445	0
96	26458	0.445	0
96	26461	0.445	0
96	26463	0.445	0
96	26492	0.446	0
96	26495	0.446	0
96	26498	0.446	0
96	26507	0.446	0
96	26510	0.446	0
96	26513	0.446	0
96	26516	0.446	0
96	26519	0.446	0
96	26522	0.446	0
96	26539	0.446	0
[...]
1174	12327	0.2070005104	86
1174	12327	0.2070005104	88
1174	12327	0.2070005104	90
1174	12327	0.2070005104	92
1174	12327	0.2070005104	94
1174	12327	0.2070005104	96
1174	12327	0.2070005104	98
1174	12327	0.2070005104	100
1174	12327	0.2070005104	102
1174	12327	0.2070005104	104
1174	12327	0.2070005104	106
1174	12327	0.2070005104	108
1174	12327	0.2070005104	110
1174	12327	0.2070005104	112
1174	12327	0.2070005104	114
1174	12327	0.2070005104	116
1174	12327	0.2070005104	118
1174	12327	0.2070005104	120
1174	12327	0.2070005104	122
1174	12327	0.2070005104	124
1174	12327	0.2070005104	126
1174	12327	0.2070005104	128
1174	12327	0.2070005104	130
1174	12327	0.2070005104	132
1174	12327	0.2070005104	134
1174	12327	0.2070005104	136
1174	12327	0.2070005104	138
1174	12327	0.2070005104	140
1174	12327	0.2070005104	142
1174	12327	0.2070005104	144
1174	12327	0.2070005104	146
1174	12327	0.2070005104	148
1174	12327	0.2070005104	150
1174	12327	0.2070005104	152
1174	12327	0.2070005104	154
1174	12327	0.2070005104	156
1174	12327	0.2070005104	158
1174	12327	0.2070005104	160
1174	24327	0.4070019656	158
1174	24327	0.4070019656	156
1174	24327	0.4070019656	154
1174	24327	0.4070019656	152
1174	24327	0.4070019656	150
1174	24327	0.4070019656	148
1174	24327	0.4070019656	146
1174	24327	0.4070019656	144
1174	24327	0.4070019656	142
1174	24327	0.4070019656	140
1174	24327	0.4070019656	138
1174	24327	0.4070019656	136
1174	24327	0.4070019656	134
1174	24327	0.4070019656	132
1174	24327	0.4070019656	130
1174	24327	0.4070019656	128
1174	24327	0.4070019656	126
1174	24327	0.4070019656	124
1174	24327	0.4070019656	122
1174	24327	0.4070019656	120
1174	24327	0.4070019656	118
1174	24327	0.4070019656	116
1174	24327	0.4070019656	114
1174	24327	0.4070019656	112
1174	24327	0.4070019656	110
1174	24327	0.4070019656	108
1174	24327	0.4070019656	106
1174	24327	0.4070019656	104
1174	24327	0.4070019656	102
1174	24327	0.4070019656	100
1174	24327	0.4070019656	98
1174	24327	0.4070019656	96
1174	24327	0.4070019656	94
1174	24327	0.4070019656	92
1174	24327	0.4070019656	90
1174	24327	0.4070019656	88
1174	24327	0.4070019656	86
1174	24327	0.4070019656	84
1174	24327	0.4070019656	82
1174	24327	0.4070019656	80
1174	24327	0.4070019656	78
1174	24327	0.4070019656	76
1174	24327	0.4070019656	74
1174	24327	0.4070019656	72
1174	24327	0.4070019656	70
1174	24327	0.4070019656	68
1174	24327	0.4070019656	66
1174	24327	0.4070019656	64
1174	24327	0.4070019656	62
1174	24327	0.4070019656	60
1174	24327	0.4070019656	58
1174	24327	0.4070019656	56
1174	24327	0.4070019656	54
1174	24327	0.4070019656	52
1174	24327	0.4070019656	50
1174	24327	0.4070019656	48
1174	24327	0.4070019656	46
1174	24327	0.4070019656	44
1174	24327	0.4070019656	42
1174	24327	0.4070019656	40
1174	24327	0.4070019656	38
1174	24327	0.4070019656	36
1174	24327	0.4070019656	34
1174	24327	0.4070019656	32
1174	24327	0.4070019656	30
1174	24327	0.4070019656	28
1174	24327	0.4070019656	26
1174	24327	0.4070019656	24
1174	24327	0.4070019656	22
1174	24327	0.4070019656	20
1174	24327	0.4070019656	18
1174	24327	0.4070019656	16
1174	24327	0.4070019656	14
1174	24327	0.4070019656	12
1174	24327	0.4070019656	10
1174	24327	0.4070019656	8
1174	24327	0.4070019656	6
1174	24327	0.4070019656	4
1174	24327	0.4070019656	2
1174	24327	0.4070019656	0
1175	605	0.007	2
1175	659	0.0070001912	0
1175	659	0.0070001912	2
1175	659	0.0070001912	4
1175	659	0.0070001912	6
1175	659	0.0070001912	8
1175	659	0.0070001912	10
1175	659	0.0070001912	12
1175	659	0.0070001912	14
1175	659	0.0070001912	16
1175	659	0.0070001912	18
1175	12327	0.2070005104	16
1175	12327	0.2070005104	14
1175	12327	0.2070005104	12
1175	12327	0.2070005104	10
1175	12327	0.2070005104	8
1175	12327	0.2070005104	6
1175	12327	0.2070005104	4
1175	12327	0.2070005104	2
1175	12327	0.2070005104	0
1175	12327	0.2070005104	2
1175	12327	0.2070005104	4
1175	12327	0.2070005104	6
1175	12327	0.2070005104	8
1175	12327	0.2070005104	10
1175	12327	0.2070005104	12
1175	12327	0.2070005104	14
1175	12327	0.2070005104	16
1175	12327	0.2070005104	18
1175	12327	0.2070005104	20
1175	12327	0.2070005104	22
1175	12327	0.2070005104	24
1175	12327	0.2070005104	26
1175	12327	0.2070005104	28
1175	12327	0.2070005104	30
1175	12327	0.2070005104	32
1175	12327	0.2070005104	34
1175	12327	0.2070005104	36
1175	12327	0.2070005104	38
1175	12327	0.2070005104	40
1175	12327	0.2070005104	42
1175	12327	0.2070005104	44
1175	12327	0.2070005104	46
1175	12327	0.2070005104	48
1175	12327	0.2070005104	50
1175	12327	0.2070005104	52
1175	12327	0.2070005104	54
1175	12327	0.2070005104	56
1175	12327	0.2070005104	58
1175	12327	0.2070005104	60
1175	12327	0.2070005104	62
1175	12327	0.2070005104	64
1175	12327	0.2070005104	66
1175	12327	0.2070005104	68
1175	12327	0.2070005104	70
1175	12327	0.2070005104	72
1175	12327	0.2070005104	74
1175	12327	0.2070005104	76
1175	12327	0.2070005104	78
1175	12327	0.2070005104	80
1175	12327	0.2070005104	82
1175	12327	0.2070005104	84
1175	12327	0.2070005104	86
1175	12327	0.2070005104	88
1175	12327	0.2070005104	90
1175	12327	0.2070005104	92
1175	12327	0.2070005104	94
1175	12327	0.2070005104	96
1175	12327	0.2070005104	98
1175	12327	0.2070005104	100
1175	12327	0.2070005104	102
1175	12327	0.2070005104	104
1175	12327	0.2070005104	106
1175	12327	0.2070005104	108
1175	12327	0.2070005104	110
1175	12327	0.2070005104	112
1175	12327	0.2070005104	114
1175	12327	0.2070005104	116
1175	12327	0.2070005104	118
1175	12327	0.2070005104	120
1175	12327	0.2070005104	122
1175	12327	0.2070005104	124
1175	12327	0.2070005104	126
1175	12327	0.2070005104	128
1175	12327	0.2070005104	130
1175	12327	0.2070005104	132
1175	12327	0.2070005104	134
1175	12327	0.2070005104	136
1175	12327	0.2070005104	138
1175	12327	0.2070005104	140
1175	12327	0.2070005104	142
1175	12327	0.2070005104	144
1175	12327	0.2070005104	146
1175	12327	0.2070005104	148
1175	12327	0.2070005104	150
1175	12327	0.2070005104	152
1175	12327	0.2070005104	154
1175	12327	0.2070005104	156
1175	12327	0.2070005104	158
1175	12327	0.2070005104	160
1175	24327	0.4070019656	158
1175	24327	0.4070019656	156
1175	24327	0.4070019656	154
1175	24327	0.4070019656	152
1175	24327	0.4070019656	150
1175	24327	0.4070019656	148
1175	24327	0.4070019656	146
1175	24327	0.4070019656	144
1175	24327	0.4070019656	142
1175	24327	0.4070019656	140
1175	24327	0.4070019656	138
1175	24327	0.4070019656	136
1175	24327	0.4070019656	134
1175	24327	0.4070019656	132
1175	24327	0.4070019656	130
1175	24327	0.4070019656	128
1175	24327	0.4070019656	126
1175	24327	0.4070019656	124
1175	24327	0.4070019656	122
1175	24327	0.4070019656	120
1175	24327	0.4070019656	118
1175	24327	0.4070019656	116
1175	24327	0.4070019656	114
1175	24327	0.4070019656	112
1175	24327	0.4070019656	110
1175	24327	0.4070019656	108
1175	24327	0.4070019656	106
1175	24327	0.4070019656	104
1175	24327	0.4070019656	102
1175	24327	0.4070019656	100
1175	24327	0.4070019656	98
1175	24327	0.4070019656	96
1175	24327	0.4070019656	94
1175	24327	0.4070019656	92
1175	24327	0.4070019656	90
1175	24327	0.4070019656	88
1175	24327	0.4070019656	86
1175	24327	0.4070019656	84
1175	24327	0.4070019656	82
1175	24327	0.4070019656	80
1175	24327	0.4070019656	78
1175	24327	0.4070019656	76
1175	24327	0.4070019656	74
1175	24327	0.4070019656	72
1175	24327	0.4070019656	70
1175	24327	0.4070019656	68
1175	24327	0.4070019656	66
1175	24327	0.4070019656	64
1175	24327	0.4070019656	62
1175	24327	0.4070019656	60
1175	24327	0.4070019656	58
1175	24327	0.4070019656	56
1175	24327	0.4070019656	54
1175	24327	0.4070019656	52
1175	24327	0.4070019656	50
1175	24327	0.4070019656	48
1175	24327	0.4070019656	46
1175	24327	0.4070019656	44
1175	24327	0.4070019656	42
1175	24327	0.4070019656	40
1175	24327	0.4070019656	38
1175	24327	0.4070019656	36
1175	24327	0.4070019656	34
1175	24327	0.4070019656	32
1175	24327	0.4070019656	30
1175	24327	0.4070019656	28
1175	24327	0.4070019656	26
1175	24327	0.4070019656	24
1175	24327	0.4070019656	22
1175	24327	0.4070019656	20
1175	24327	0.4070019656	18
1175	24327	0.4070019656	16
1175	24327	0.4070019656	14
1175	24327	0.4070019656	12
1175	24327	0.4070019656	10
1175	24327	0.4070019656	8
1175	24327	0.4070019656	6
1175	24327	0.4070019656	4
1175	24327	0.4070019656	2
1175	24327	0.4070019656	0
1178	659	0.0070001912	0
1178	12327	0.2070005104	0
1178	24327	0.4070019656	0
1179	659	0.0070001912	0
1179	12327	0.2070005104	0
1179	24327	0.4070019656	0
1180	659	0.0070001912	0
1180	12327	0.2070005104	0
1180	24327	0.4070019656	0
1181	659	0.0070001912	0
1181	12327	0.2070005104	0
1181	24327	0.4070019656	0
1182	150	0.0000001228	0
1185	659	0.0070001912	2000
1185	12327	0.2070005104	2009
1185	24327	0.4070019656	2089
1187	659	0.0070001912	0
1187	12327	0.2070005104	0
1187	24327	0.4070019656	0
1188	659	0.0070001912	0
1188	12327	0.2070005104	0
1188	24327	0.4070019656	0
1190	235	0.0000006304	3
1192	235	0.0000006304	65535
1193	235	0.0000006304	8940
1194	235	0.0000006304	0.3725
1197	235	0.0000006304	1
1209	163	0.0000003096	0
1217	235	0.0000006304	3
1219	235	0.0000006304	65535
1220	235	0.0000006304	8940
1221	235	0.0000006304	0.3725
1224	235	0.0000006304	1
1236	163	0.0000003096	0
1244	236	0.0000006304	3
1246	236	0.0000006304	65535
1247	236	0.0000006304	8940
1248	236	0.0000006304	0.3725
1251	236	0.0000006304	1
1263	164	0.0000003096	0
1271	236	0.0000006304	3
1273	236	0.0000006304	65535
1274	236	0.0000006304	8940
1275	236	0.0000006304	0.3725
1278	236	0.0000006304	1
1290	164	0.0000003096	0
1300	3462	0.0570001912	0
1300	15512	0.2570005104	0
1300	27145	0.4570019656	0
1301	3374	0.057	1
1301	3374	0.057	0
1301	3375	0.057	1
1301	3376	0.057	2
1301	3377	0.057	3
1301	3378	0.057	4
1301	3379	0.057	5
1301	3380	0.057	6
1301	3381	0.057	7
1301	3382	0.057	8
1301	3383	0.057	9
1301	3462	0.0570001912	8
1301	3462	0.0570001912	7
1301	3462	0.0570001912	6
1301	3462	0.0570001912	5
1301	3462	0.0570001912	4
1301	3462	0.0570001912	3
1301	3462	0.0570001912	2
1301	3462	0.0570001912	1
1301	3462	0.0570001912	0
1301	3831	0.063	1
1301	3832	0.063	2
1301	3833	0.063	3
1301	3834	0.063	4
1301	3835	0.063	5
1301	3836	0.063	6
1301	3837	0.063	7
1301	3838	0.063	8
1301	3839	0.063	9
1301	3840	0.063	10
1301	4184	0.069	11
1301	4185	0.069	12
1301	4186	0.069	13
1301	4187	0.069	14
1301	4188	0.069	15
1301	4189	0.069	16
1301	4190	0.069	17
1301	4191	0.069	18
1301	4192	0.069	19
1301	4193	0.069	20
1301	4562	0.075	21
1301	4563	0.075	22
1301	4564	0.075	23
1301	4565	0.075	24
1301	4566	0.075	25
1301	4567	0.075	26
1301	4568	0.075	27
1301	4569	0.075	28
1301	4570	0.075	29
1301	4571	0.075	30
1301	4925	0.081	31
1301	4926	0.081	32
1301	4927	0.081	33
1301	4928	0.081	34
1301	4929	0.081	35
1301	4930	0.081	36
1301	4931	0.081	37
1301	4932	0.081	38
1301	4933	0.081	39
1301	4934	0.081	40
1301	5289	0.087	41
1301	5290	0.087	42
1301	5291	0.087	43
1301	5292	0.087	44
1301	5293	0.087	45
1301	5294	0.087	46
1301	5295	0.087	47
1301	5296	0.087	48
1301	5297	0.087	49
1301	5298	0.087	50
1301	5676	0.093	51
1301	5677	0.093	52
1301	5678	0.093	53
1301	5679	0.093	54
1301	5680	0.093	55
1301	5681	0.093	56
1301	5682	0.093	57
1301	5683	0.093	58
1301	5684	0.093	59
1301	5685	0.093	60
1301	6067	0.099	61
1301	6068	0.099	62
1301	6069	0.099	63
1301	6070	0.099	64
1301	6071	0.099	65
1301	6072	0.099	66
1301	6073	0.099	67
1301	6074	0.099	68
1301	6075	0.099	69
1301	6076	0.099	70
1301	6494	0.105	71
1301	6495	0.105	72
1301	6496	0.105	73
1301	6497	0.105	74
1301	6498	0.105	75
1301	6499	0.105	76
1301	6500	0.105	77
1301	6501	0.105	78
1301	6502	0.105	79
1301	6503	0.105	80
1301	15512	0.2570005104	79
1301	15512	0.2570005104	78
1301	15512	0.2570005104	77
1301	15512	0.2570005104	76
1301	15512	0.2570005104	75
1301	15512	0.2570005104	74
1301	15512	0.2570005104	73
1301	15512	0.2570005104	72
1301	15512	0.2570005104	71
1301	15512	0.2570005104	70
1301	15512	0.2570005104	69
1301	15512	0.2570005104	68
1301	15512	0.2570005104	67
1301	15512	0.2570005104	66
1301	15512	0.2570005104	65
1301	15512	0.2570005104	64
1301	15512	0.2570005104	63
1301	15512	0.2570005104	62
1301	15512	0.2570005104	61
1301	15512	0.2570005104	60
1301	15512	0.2570005104	59
1301	15512	0.2570005104	58
1301	15512	0.2570005104	57
1301	15512	0.2570005104	56
1301	15512	0.2570005104	55
1301	15512	0.2570005104	54
1301	15512	0.2570005104	53
1301	15512	0.2570005104	52
1301	15512	0.2570005104	51
1301	15512	0.2570005104	50
1301	15512	0.2570005104	49
1301	15512	0.2570005104	48
1301	15512	0.2570005104	47
1301	15512	0.2570005104	46
1301	15512	0.2570005104	45
1301	15512	0.2570005104	44
1301	15512	0.2570005104	43
1301	15512	0.2570005104	42
1301	15512	0.2570005104	41
1301	15512	0.2570005104	40
1301	15512	0.2570005104	39
1301	15512	0.2570005104	38
1301	15512	0.2570005104	37
1301	15512	0.2570005104	36
1301	15512	0.2570005104	35
1301	15512	0.2570005104	34
1301	15512	0.2570005104	33
1301	15512	0.2570005104	32
1301	15512	0.2570005104	31
1301	15512	0.2570005104	30
1301	15512	0.2570005104	29
1301	15512	0.2570005104	28
1301	15512	0.2570005104	27
1301	15512	0.2570005104	26
1301	15512	0.2570005104	25
1301	15512	0.2570005104	24
1301	15512	0.2570005104	23
1301	15512	0.2570005104	22
1301	15512	0.2570005104	21
1301	15512	0.2570005104	20
1301	15512	0.2570005104	19
1301	15512	0.2570005104	18
1301	15512	0.2570005104	17
1301	15512	0.2570005104	16
1301	15512	0.2570005104	15
1301	15512	0.2570005104	14
1301	15512	0.2570005104	13
1301	15512	0.2570005104	12
1301	15512	0.2570005104	11
1301	15512	0.2570005104	10
1301	15512	0.2570005104	9
1301	15512	0.2570005104	8
1301	15512	0.2570005104	7
1301	15512	0.2570005104	6
1301	15512	0.2570005104	5
1301	15512	0.2570005104	4
1301	15512	0.2570005104	3
1301	15512	0.2570005104	2
1301	15512	0.2570005104	1
1301	15512	0.2570005104	0
1304	659	0.0070001912	0
1304	12327	0.2070005104	0
1304	24327	0.4070019656	0
1305	605	0.007	1
1305	605	0.007	0
1305	606	0.007	1
1305	607	0.007	2
1305	608	0.007	3
1305	609	0.007	4
1305	610	0.007	5
1305	611	0.007	6
1305	612	0.007	7
1305	613	0.007	8
1305	614	0.007	9
1305	659	0.0070001912	8
1305	659	0.0070001912	7
1305	659	0.0070001912	6
1305	659	0.0070001912	5
1305	659	0.0070001912	4
1305	659	0.0070001912	3
1305	659	0.0070001912	2
1305	659	0.0070001912	1
1305	659	0.0070001912	0
1305	940	0.013	1
1305	941	0.013	2
1305	942	0.013	3
1305	943	0.013	4
1305	944	0.013	5
1305	945	0.013	6
1305	946	0.013	7
1305	947	0.013	8
1305	948	0.013	9
1305	949	0.013	10
1305	1206	0.019	11
1305	1207	0.019	12
1305	1208	0.019	13
1305	1209	0.019	14
1305	1210	0.019	15
1305	1211	0.019	16
1305	1212	0.019	17
1305	1213	0.019	18
1305	1214	0.019	19
1305	1215	0.019	20
1305	1474	0.025	21
1305	1475	0.025	22
1305	1476	0.025	23
1305	1477	0.025	24
1305	1478	0.025	25
1305	1479	0.025	26
1305	1480	0.025	27
1305	1481	0.025	28
1305	1482	0.025	29
1305	1483	0.025	30
1305	1757	0.031	31
1305	1758	0.031	32
1305	1759	0.031	33
1305	1760	0.031	34
1305	1761	0.031	35
1305	1762	0.031	36
1305	1763	0.031	37
1305	1764	0.031	38
1305	1765	0.031	39
1305	1766	0.031	40
1305	2068	0.037	41
1305	2069	0.037	42
1305	2070	0.037	43
1305	2071	0.037	44
1305	2072	0.037	45
1305	2073	0.037	46
1305	2074	0.037	47
1305	2075	0.037	48
1305	2076	0.037	49
1305	2077	0.037	50
1305	2424	0.043	51
1305	2425	0.043	52
1305	2426	0.043	53
1305	2427	0.043	54
1305	2428	0.043	55
1305	2429	0.043	56
1305	2430	0.043	57
1305	2431	0.043	58
1305	2432	0.043	59
1305	2433	0.043	60
1305	2821	0.049	61
1305	2822	0.049	62
1305	2823	0.049	63
1305	2824	0.049	64
1305	2825	0.049	65
1305	2826	0.049	66
1305	2827	0.049	67
1305	2828	0.049	68
1305	2829	0.049	69
1305	2830	0.049	70
1305	3222	0.055	71
1305	3223	0.055	72
1305	3224	0.055	73
1305	3225	0.055	74
1305	3226	0.055	75
1305	3227	0.055	76
1305	3228	0.055	77
1305	3229	0.055	78
1305	3230	0.055	79
1305	3231	0.055	80
1305	12327	0.2070005104	79
1305	12327	0.2070005104	78
1305	12327	0.2070005104	77
1305	12327	0.2070005104	76
1305	12327	0.2070005104	75
1305	12327	0.2070005104	74
1305	12327	0.2070005104	73
1305	12327	0.2070005104	72
1305	12327	0.2070005104	71
1305	12327	0.2070005104	70
1305	12327	0.2070005104	69
1305	12327	0.2070005104	68
1305	12327	0.2070005104	67
1305	12327	0.2070005104	66
1305	12327	0.2070005104	65
1305	12327	0.2070005104	64
1305	12327	0.2070005104	63
1305	12327	0.2070005104	62
1305	12327	0.2070005104	61
1305	12327	0.2070005104	60
1305	12327	0.2070005104	59
1305	12327	0.2070005104	58
1305	12327	0.2070005104	57
1305	12327	0.2070005104	56
1305	12327	0.2070005104	55
1305	12327	0.2070005104	54
1305	12327	0.2070005104	53
1305	12327	0.2070005104	52
1305	12327	0.2070005104	51
1305	12327	0.2070005104	50
1305	12327	0.2070005104	49
1305	12327	0.2070005104	48
1305	12327	0.2070005104	47
1305	12327	0.2070005104	46
1305	12327	0.2070005104	45
1305	12327	0.2070005104	44
1305	12327	0.2070005104	43
1305	12327	0.2070005104	42
1305	12327	0.2070005104	41
1305	12327	0.2070005104	40
1305	12327	0.2070005104	39
1305	12327	0.2070005104	38
1305	12327	0.2070005104	37
1305	12327	0.2070005104	36
1305	12327	0.2070005104	35
1305	12327	0.2070005104	34
1305	12327	0.2070005104	33
1305	12327	0.2070005104	32
1305	12327	0.2070005104	31
1305	12327	0.2070005104	30
1305	12327	0.2070005104	29
1305	12327	0.2070005104	28
1305	12327	0.2070005104	27
1305	12327	0.2070005104	26
1305	12327	0.2070005104	25
1305	12327	0.2070005104	24
1305	12327	0.2070005104	23
1305	12327	0.2070005104	22
1305	12327	0.2070005104	21
1305	12327	0.2070005104	20
1305	12327	0.2070005104	19
1305	12327	0.2070005104	18
1305	12327	0.2070005104	17
1305	12327	0.2070005104	16
1305	12327	0.2070005104	15
1305	12327	0.2070005104	14
1305	12327	0.2070005104	13
1305	12327	0.2070005104	12
1305	12327	0.2070005104	11
1305	12327	0.2070005104	10
1305	12327	0.2070005104	9
1305	12327	0.2070005104	8
1305	12327	0.2070005104	7
1305	12327	0.2070005104	6
1305	12327	0.2070005104	5
1305	12327	0.2070005104	4
1305	12327	0.2070005104	3
1305	12327	0.2070005104	2
1305	12327	0.2070005104	1
1305	12327	0.2070005104	0
1319	893	0.012314120021	7504
1319	170223	3.012314120021	7504
1320	893	0.012314120021	7504
1320	170223	3.012314120021	7504
1322	893	0.012314120021	0
1322	170223	3.012314120021	0
1333	893	0.012314120021	0
1333	170223	3.012314120021	0
1343	1598	0.027262016546	7504
1344	1598	0.027262016546	7504
1346	1598	0.027262016546	0
1357	1598	0.027262016546	0
1367	1857	0.032193433337	7504
1368	1857	0.032193433337	7504
1370	1857	0.032193433337	0
1381	1857	0.032193433337	0
1391	1929	0.034967919982	7504
1392	1929	0.034967919982	7504
1394	1929	0.034967919982	0
1405	1929	0.034967919982	0
1415	2116	0.037255783586	7504
1416	2116	0.037255783586	7504
1418	2116	0.037255783586	0
1429	2116	0.037255783586	0
1439	2369	0.042654495104	7504
1440	2369	0.042654495104	7504
1442	2369	0.042654495104	0
1453	2369	0.042654495104	0
1463	2377	0.042742808261	7504
1464	2377	0.042742808261	7504
1466	2377	0.042742808261	0
1477	2377	0.042742808261	0
1487	2476	0.043019576671	7504
1488	2476	0.043019576671	7504
1490	2476	0.043019576671	0
1501	2476	0.043019576671	0
1511	3557	0.058969033093	7504
1512	3557	0.058969033093	7504
1514	3557	0.058969033093	0
1525	3557	0.058969033093	0
1535	3874	0.063074826114	7504
1536	3874	0.063074826114	7504
1538	3874	0.063074826114	0
1549	3874	0.063074826114	0
1559	4058	0.067512416122	7504
1560	4058	0.067512416122	7504
1562	4058	0.067512416122	0
1573	4058	0.067512416122	0
1583	4147	0.068596436554	7504
1584	4147	0.068596436554	7504
1586	4147	0.068596436554	0
1597	4147	0.068596436554	0
1607	4272	0.070868452201	7504
1608	4272	0.070868452201	7504
1610	4272	0.070868452201	0
1621	4272	0.070868452201	0
1631	4319	0.071731106779	7504
1632	4319	0.071731106779	7504
1634	4319	0.071731106779	0
1645	4319	0.071731106779	0
1655	4888	0.080385986073	7504
1656	4888	0.080385986073	7504
1658	4888	0.080385986073	0
1669	4888	0.080385986073	0
1679	5252	0.086132885579	7504
1680	5252	0.086132885579	7504
1682	5252	0.086132885579	0
1693	5252	0.086132885579	0
1703	5374	0.088660440601	7504
1704	5374	0.088660440601	7504
1706	5374	0.088660440601	0
1717	5374	0.088660440601	0
1727	5419	0.089070481334	7504
1728	5419	0.089070481334	7504
1730	5419	0.089070481334	0
1741	5419	0.089070481334	0
1751	5807	0.095104090585	7504
1752	5807	0.095104090585	7504
1754	5807	0.095104090585	0
1765	5807	0.095104090585	0
1775	6125	0.099035166858	7504
1776	6125	0.099035166858	7504
1778	6125	0.099035166858	0
1789	6125	0.099035166858	0
