version 2
run CAIN-40-20200508-15:49:23-11342
attr configname CAIN
attr datetime 20200508-15:49:23
attr dist 200
attr experiment CAIN
attr extAllocType "\"CONTIGUOUS_ALLOC\""
attr inifile omnetpp.ini
attr iterationvars "$numUe=20, $pwr=-50, $dist=200, $mob=\"./movements/RPGM-0.0.movements\", $extAllocType=\"CONTIGUOUS_ALLOC\""
attr iterationvars2 "$numUe=20, $pwr=-50, $dist=200, $mob=\"./movements/RPGM-0.0.movements\", $extAllocType=\"CONTIGUOUS_ALLOC\", $repetition=0"
attr measurement "$numUe=20, $pwr=-50, $dist=200, $mob=\"./movements/RPGM-0.0.movements\", $extAllocType=\"CONTIGUOUS_ALLOC\""
attr mob "\"./movements/RPGM-0.0.movements\""
attr network lte.simulations.networks.CAIN
attr numUe 20
attr processid 11342
attr pwr -50
attr repetition 0
attr replication #0
attr resultdir results
attr runnumber 40
attr seedset 0
param **.**.amcMode "\"AUTO\""
param **.amcMode "\"D2D\""
param **.cainNetwork true
param **.channelControl.alpha 1.0
param **.channelControl.carrierFrequency 2100e+6Hz
param **.channelControl.pMax 10W
param **.d2dCqi 7
param **.deployer.numRbDl 50
param **.deployer.numRbUl 50
param **.distThresh ${dist=200}
param **.fbDelay 1
param **.feedbackComputation "xmldoc(\"config_channel.xml\")"
param **.mobility.constraintAreaMaxX 1000m
param **.mobility.constraintAreaMaxY 1000m
param **.mobility.constraintAreaMaxZ 0m
param **.mobility.constraintAreaMinX 0m
param **.mobility.constraintAreaMinY 0m
param **.mobility.constraintAreaMinZ 0m
param **.nic.phy.channelModel "xmldoc(\"config_channel.xml\")"
param **.numBands 50
param **.pwrThresh "${pwr= -50}"
param **.qtdThresh 3
param **.rbAllocationType "\"localized\""
param **.routingRecorder.enabled false
param **.tcpApp[*].tClose -1s
param **.ueD2DTx[*].mobility.changeAngleBy "normal(0deg, 30deg)"
param **.ueD2DTx[*].mobility.changeInterval "normal(5s, 0.1s)"
param **.ueD2DTx[*].mobility.nodeId -1
param **.ueD2DTx[*].mobility.speed "normal(2mps, 0.01mps)"
param **.ueD2DTx[*].mobility.traceFile "${mob=\"./movements/RWP-0.0.movements\",\"./movements/RWP-0.5.movements\",\"./movements/RPGM-0.0.movements\",\"./movements/RPGM-0.5.movements\",\"./movements/RWPRPGM-0.0.movements\",\"./movements/RWPRPGM-0.5.movements\"}"
param **.ueD2DTx[*].mobilityType "\"BonnMotionMobility\""
param **.usePreconfiguredTxParams false
param *.eNodeB*.numX2Apps 1
param *.eNodeB*.x2App[*].server.localPort "5000 + ancestorIndex(1)"
param *.eNodeB.d2dCapable false
param *.eNodeB.mobility.initFromDisplayString false
param *.eNodeB.mobility.initialX 300m
param *.eNodeB.mobility.initialY 300m
param *.eNodeB.nic.phy.enableD2DCqiReporting true
param *.eNodeB.txPower 19952.62315mw
param *.eNodeB.x2App[0].client.connectAddress "\"eNodeB1%x2ppp0\""
param *.eNodeB1.d2dCapable true
param *.eNodeB1.mobility.initFromDisplayString false
param *.eNodeB1.mobility.initialX 700m
param *.eNodeB1.mobility.initialY 300m
param *.eNodeB1.nic.phy.enableD2DCqiReporting true
param *.eNodeB1.txPower 19952.62315mw
param *.eNodeB1.x2App[0].client.connectAddress "\"eNodeB%x2ppp0\""
param *.extCell[*].bandAllocationType "${extAllocType=\"FULL_ALLOC\",\"RANDOM_ALLOC\",\"CONTIGUOUS_ALLOC\"}"
param *.extCell[*].bandUtilization 0.5
param *.extCell[*].txDirection "\"ANISOTROPIC\""
param *.extCell[*].txPower 20
param *.extCell[0].position_x 100m
param *.extCell[0].position_y 600m
param *.extCell[0].txAngle 315
param *.extCell[1].position_x 600m
param *.extCell[1].position_y 600m
param *.extCell[1].txAngle 225
param *.numExtCells 2
param *.numUeCell 0
param *.numUeD2DRx 1
param *.numUeD2DTx 1
param *.ue*.macCellId 1
param *.ue*.masterId 1
param *.ue*.mobility.initFromDisplayString false
param *.ue*[0].macCellId 1
param *.ue*[0].masterId 1
param *.ue*[0].mobility.initFromDisplayString false
param *.ueD2D*.numTcpApps 1
param *.ueD2D*[*].d2dCapable true
param *.ueD2D*[0].d2dCapable false
param *.ueD2D*[0].numTcpApps 1
param *.ueD2DRx[0].mobility.initialX 310m
param *.ueD2DRx[0].mobility.initialY 350m
param *.ueD2DRx[0].tcpApp[*].localPort 1000
param *.ueD2DRx[0].tcpApp[*].typename "\"TCPSinkApp\""
param *.ueD2DTx*.nic.d2dPeerAddresses "\"ueD2DTx[1]\""
param *.ueD2DTx*.tcpApp[*].connectAddress "\"ueD2DTx[0]\""
param *.ueD2DTx*.tcpApp[*].localAddress "\"ueD2DTx\""
param *.ueD2DTx*.tcpApp[*].localPort 1000
param *.ueD2DTx*.tcpApp[*].sendBytes 1GiB
param *.ueD2DTx*.tcpApp[*].typename "\"TCPSessionApp\""
param *.ueD2DTx*.tcpApp[0].active true
param *.ueD2DTx*.tcpApp[0].connectPort 1000
param *.ueD2DTx*.tcpApp[0].tOpen uniform(0.010s,0.1s)
param *.ueD2DTx*.tcpApp[0].tSend uniform(0.15s,0.5s)
param *.ueD2DTx[0].mobility.initialX 290m
param *.ueD2DTx[0].mobility.initialY 350m
param *.ueD2DTx[0].tcpApp[*].localPort 1000
param *.ueD2DTx[0].tcpApp[*].sendBytes 1GiB
param *.ueD2DTx[0].tcpApp[*].typename "\"TCPSessionApp\""
param *.ueD2DTx[0].tcpApp[0].active true
param *.ueD2DTx[0].tcpApp[0].connectAddress "\"ueD2DRx[0]\""
param *.ueD2DTx[0].tcpApp[0].connectPort 1000
param *.ueD2DTx[0].tcpApp[0].localAddress "\"ueD2DTx[0]\""
param *.ueD2DTx[0].tcpApp[0].tOpen uniform(0.010s,0.1s)
param *.ueD2DTx[0].tcpApp[0].tSend uniform(0.15s,0.5s)
param *.ueD2DTx[1].mobility.initialX 690m
param *.ueD2DTx[1].mobility.initialY 250m

vector 8  CAIN.server.ppp[0].queue  queueLength:vector  ETV
attr interpolationmode  sample-hold
attr title  "queue length, vector"
vector 9  CAIN.server.ppp[0].ppp  txState:vector  ETV
attr interpolationmode  sample-hold
attr title  "tx state, vector"
vector 24  CAIN.router.ppp[0].queue  queueLength:vector  ETV
attr interpolationmode  sample-hold
attr title  "queue length, vector"
vector 25  CAIN.router.ppp[0].ppp  txState:vector  ETV
attr interpolationmode  sample-hold
attr title  "tx state, vector"
vector 35  CAIN.router.ppp[1].queue  queueLength:vector  ETV
attr interpolationmode  sample-hold
attr title  "queue length, vector"
vector 36  CAIN.router.ppp[1].ppp  txState:vector  ETV
attr interpolationmode  sample-hold
attr title  "tx state, vector"
vector 56  CAIN.pgw.ppp[0].queue  queueLength:vector  ETV
attr interpolationmode  sample-hold
attr title  "queue length, vector"
vector 57  CAIN.pgw.ppp[0].ppp  txState:vector  ETV
attr interpolationmode  sample-hold
attr title  "tx state, vector"
vector 67  CAIN.pgw.ppp[1].queue  queueLength:vector  ETV
attr interpolationmode  sample-hold
attr title  "queue length, vector"
vector 68  CAIN.pgw.ppp[1].ppp  txState:vector  ETV
attr interpolationmode  sample-hold
attr title  "tx state, vector"
vector 78  CAIN.pgw.pppInterface.queue  queueLength:vector  ETV
attr interpolationmode  sample-hold
attr title  "queue length, vector"
vector 79  CAIN.pgw.pppInterface.ppp  txState:vector  ETV
attr interpolationmode  sample-hold
attr title  "tx state, vector"
vector 120  CAIN.eNodeB.pppIf.queue  queueLength:vector  ETV
attr interpolationmode  sample-hold
attr title  "queue length, vector"
vector 121  CAIN.eNodeB.pppIf.ppp  txState:vector  ETV
attr interpolationmode  sample-hold
attr title  "tx state, vector"
vector 131  CAIN.eNodeB.x2ppp[0].queue  queueLength:vector  ETV
attr interpolationmode  sample-hold
attr title  "queue length, vector"
vector 132  CAIN.eNodeB.x2ppp[0].ppp  txState:vector  ETV
attr interpolationmode  sample-hold
attr title  "tx state, vector"
vector 178  CAIN.eNodeB1.pppIf.queue  queueLength:vector  ETV
attr interpolationmode  sample-hold
attr title  "queue length, vector"
vector 179  CAIN.eNodeB1.pppIf.ppp  txState:vector  ETV
attr interpolationmode  sample-hold
attr title  "tx state, vector"
vector 189  CAIN.eNodeB1.x2ppp[0].queue  queueLength:vector  ETV
attr interpolationmode  sample-hold
attr title  "queue length, vector"
vector 190  CAIN.eNodeB1.x2ppp[0].ppp  txState:vector  ETV
attr interpolationmode  sample-hold
attr title  "tx state, vector"
vector 231  CAIN.ueD2DTx[0].nic.phy  servingCell:vector  ETV
attr source  servingCell
attr title  "ID of the serving eNodeB for the UE, vector"
attr unit  ""
vector 263  CAIN.ueD2DTx[1].nic.phy  servingCell:vector  ETV
attr source  servingCell
attr title  "ID of the serving eNodeB for the UE, vector"
attr unit  ""
vector 295  CAIN.ueD2DTx[2].nic.phy  servingCell:vector  ETV
attr source  servingCell
attr title  "ID of the serving eNodeB for the UE, vector"
attr unit  ""
vector 327  CAIN.ueD2DTx[3].nic.phy  servingCell:vector  ETV
attr source  servingCell
attr title  "ID of the serving eNodeB for the UE, vector"
attr unit  ""
vector 359  CAIN.ueD2DTx[4].nic.phy  servingCell:vector  ETV
attr source  servingCell
attr title  "ID of the serving eNodeB for the UE, vector"
attr unit  ""
vector 391  CAIN.ueD2DTx[5].nic.phy  servingCell:vector  ETV
attr source  servingCell
attr title  "ID of the serving eNodeB for the UE, vector"
attr unit  ""
vector 423  CAIN.ueD2DTx[6].nic.phy  servingCell:vector  ETV
attr source  servingCell
attr title  "ID of the serving eNodeB for the UE, vector"
attr unit  ""
vector 455  CAIN.ueD2DTx[7].nic.phy  servingCell:vector  ETV
attr source  servingCell
attr title  "ID of the serving eNodeB for the UE, vector"
attr unit  ""
vector 487  CAIN.ueD2DTx[8].nic.phy  servingCell:vector  ETV
attr source  servingCell
attr title  "ID of the serving eNodeB for the UE, vector"
attr unit  ""
vector 519  CAIN.ueD2DTx[9].nic.phy  servingCell:vector  ETV
attr source  servingCell
attr title  "ID of the serving eNodeB for the UE, vector"
attr unit  ""
vector 551  CAIN.ueD2DTx[10].nic.phy  servingCell:vector  ETV
attr source  servingCell
attr title  "ID of the serving eNodeB for the UE, vector"
attr unit  ""
vector 583  CAIN.ueD2DTx[11].nic.phy  servingCell:vector  ETV
attr source  servingCell
attr title  "ID of the serving eNodeB for the UE, vector"
attr unit  ""
vector 615  CAIN.ueD2DTx[12].nic.phy  servingCell:vector  ETV
attr source  servingCell
attr title  "ID of the serving eNodeB for the UE, vector"
attr unit  ""
vector 647  CAIN.ueD2DTx[13].nic.phy  servingCell:vector  ETV
attr source  servingCell
attr title  "ID of the serving eNodeB for the UE, vector"
attr unit  ""
vector 679  CAIN.ueD2DTx[14].nic.phy  servingCell:vector  ETV
attr source  servingCell
attr title  "ID of the serving eNodeB for the UE, vector"
attr unit  ""
vector 711  CAIN.ueD2DTx[15].nic.phy  servingCell:vector  ETV
attr source  servingCell
attr title  "ID of the serving eNodeB for the UE, vector"
attr unit  ""
vector 743  CAIN.ueD2DTx[16].nic.phy  servingCell:vector  ETV
attr source  servingCell
attr title  "ID of the serving eNodeB for the UE, vector"
attr unit  ""
vector 775  CAIN.ueD2DTx[17].nic.phy  servingCell:vector  ETV
attr source  servingCell
attr title  "ID of the serving eNodeB for the UE, vector"
attr unit  ""
vector 807  CAIN.ueD2DTx[18].nic.phy  servingCell:vector  ETV
attr source  servingCell
attr title  "ID of the serving eNodeB for the UE, vector"
attr unit  ""
vector 839  CAIN.ueD2DTx[19].nic.phy  servingCell:vector  ETV
attr source  servingCell
attr title  "ID of the serving eNodeB for the UE, vector"
attr unit  ""
vector 863  CAIN.eNodeB.sctp  "Throughput of Association 3"  ETV
vector 885  CAIN.eNodeB1.sctp  "Throughput of Association 4"  ETV
vector 907  CAIN.eNodeB.sctp  "Throughput of Association 1"  ETV
vector 927  CAIN.eNodeB.sctp  "Fast Recovery State 1:10.0.5.2"  ETV
vector 956  CAIN.eNodeB1.sctp  "Throughput of Association 2"  ETV
vector 976  CAIN.eNodeB1.sctp  "Fast Recovery State 2:10.0.5.1"  ETV
vector 128  CAIN.eNodeB.x2ppp[0].queue  rcvdPk:vector(packetBytes)  ETV
attr interpolationmode  none
attr title  "received packets, vector(packetBytes)"
vector 130  CAIN.eNodeB.x2ppp[0].queue  queueingTime:vector  ETV
attr interpolationmode  none
attr title  "queueing time, vector"
vector 186  CAIN.eNodeB1.x2ppp[0].queue  rcvdPk:vector(packetBytes)  ETV
attr interpolationmode  none
attr title  "received packets, vector(packetBytes)"
vector 188  CAIN.eNodeB1.x2ppp[0].queue  queueingTime:vector  ETV
attr interpolationmode  none
attr title  "queueing time, vector"
vector 137  CAIN.eNodeB.x2ppp[0].ppp  rcvdPkFromHL:vector(packetBytes)  ETV
attr interpolationmode  none
attr source  packetReceivedFromUpper
attr title  "packets received from higher layer, vector(packetBytes)"
vector 133  CAIN.eNodeB.x2ppp[0].ppp  txPk:vector(packetBytes)  ETV
attr interpolationmode  none
attr source  packetSentToLower
attr title  "packets transmitted, vector(packetBytes)"
vector 195  CAIN.eNodeB1.x2ppp[0].ppp  rcvdPkFromHL:vector(packetBytes)  ETV
attr interpolationmode  none
attr source  packetReceivedFromUpper
attr title  "packets received from higher layer, vector(packetBytes)"
vector 191  CAIN.eNodeB1.x2ppp[0].ppp  txPk:vector(packetBytes)  ETV
attr interpolationmode  none
attr source  packetSentToLower
attr title  "packets transmitted, vector(packetBytes)"
vector 192  CAIN.eNodeB1.x2ppp[0].ppp  rxPkOk:vector(packetBytes)  ETV
attr interpolationmode  none
attr source  rxPkOk
attr title  "packets received OK, vector(packetBytes)"
vector 196  CAIN.eNodeB1.x2ppp[0].ppp  passedUpPk:vector(packetBytes)  ETV
attr interpolationmode  none
attr source  packetSentToUpper
attr title  "packets passed to higher layer, vector(packetBytes)"
vector 134  CAIN.eNodeB.x2ppp[0].ppp  rxPkOk:vector(packetBytes)  ETV
attr interpolationmode  none
attr source  rxPkOk
attr title  "packets received OK, vector(packetBytes)"
vector 138  CAIN.eNodeB.x2ppp[0].ppp  passedUpPk:vector(packetBytes)  ETV
attr interpolationmode  none
attr source  packetSentToUpper
attr title  "packets passed to higher layer, vector(packetBytes)"
vector 1005  CAIN.eNodeB1.sctp  "Throughput of Association 4"  ETV
vector 882  CAIN.eNodeB1.sctp  "Peer Rwnd 4"  ETV
vector 1025  CAIN.eNodeB1.sctp  "Fast Recovery State 5:10.0.4.1"  ETV
vector 1052  CAIN.eNodeB1.sctp  "Fast Recovery State 5:10.0.2.2"  ETV
vector 1079  CAIN.eNodeB1.sctp  "Fast Recovery State 5:10.0.5.1"  ETV
vector 1108  CAIN.eNodeB.sctp  "Throughput of Association 3"  ETV
vector 860  CAIN.eNodeB.sctp  "Peer Rwnd 3"  ETV
vector 1128  CAIN.eNodeB.sctp  "Fast Recovery State 6:10.0.4.2"  ETV
vector 1155  CAIN.eNodeB.sctp  "Fast Recovery State 6:10.0.3.2"  ETV
vector 1182  CAIN.eNodeB.sctp  "Fast Recovery State 6:10.0.5.2"  ETV
vector 904  CAIN.eNodeB.sctp  "Peer Rwnd 1"  ETV
vector 1209  CAIN.eNodeB.sctp  "Fast Recovery State 1:10.0.4.2"  ETV
vector 1236  CAIN.eNodeB.sctp  "Fast Recovery State 1:10.0.3.2"  ETV
vector 953  CAIN.eNodeB1.sctp  "Peer Rwnd 2"  ETV
vector 1263  CAIN.eNodeB1.sctp  "Fast Recovery State 2:10.0.4.1"  ETV
vector 1290  CAIN.eNodeB1.sctp  "Fast Recovery State 2:10.0.2.2"  ETV
vector 1035  CAIN.eNodeB1.sctp  "Slow Start Threshold 5:10.0.2.2"  ETV
vector 1036  CAIN.eNodeB1.sctp  "Congestion Window 5:10.0.2.2"  ETV
vector 1037  CAIN.eNodeB1.sctp  "Bandwidth 5:10.0.2.2"  ETV
vector 1040  CAIN.eNodeB1.sctp  "HB Sent 5:10.0.2.2"  ETV
vector 1033  CAIN.eNodeB1.sctp  "RTO 5:10.0.2.2"  ETV
vector 1008  CAIN.eNodeB1.sctp  "Slow Start Threshold 5:10.0.4.1"  ETV
vector 1009  CAIN.eNodeB1.sctp  "Congestion Window 5:10.0.4.1"  ETV
vector 1010  CAIN.eNodeB1.sctp  "Bandwidth 5:10.0.4.1"  ETV
vector 1013  CAIN.eNodeB1.sctp  "HB Sent 5:10.0.4.1"  ETV
vector 1006  CAIN.eNodeB1.sctp  "RTO 5:10.0.4.1"  ETV
vector 1062  CAIN.eNodeB1.sctp  "Slow Start Threshold 5:10.0.5.1"  ETV
vector 1063  CAIN.eNodeB1.sctp  "Congestion Window 5:10.0.5.1"  ETV
vector 1064  CAIN.eNodeB1.sctp  "Bandwidth 5:10.0.5.1"  ETV
vector 1060  CAIN.eNodeB1.sctp  "RTO 5:10.0.5.1"  ETV
vector 1138  CAIN.eNodeB.sctp  "Slow Start Threshold 6:10.0.3.2"  ETV
vector 1139  CAIN.eNodeB.sctp  "Congestion Window 6:10.0.3.2"  ETV
vector 1140  CAIN.eNodeB.sctp  "Bandwidth 6:10.0.3.2"  ETV
vector 1143  CAIN.eNodeB.sctp  "HB Sent 6:10.0.3.2"  ETV
vector 1136  CAIN.eNodeB.sctp  "RTO 6:10.0.3.2"  ETV
vector 1111  CAIN.eNodeB.sctp  "Slow Start Threshold 6:10.0.4.2"  ETV
vector 1112  CAIN.eNodeB.sctp  "Congestion Window 6:10.0.4.2"  ETV
vector 1113  CAIN.eNodeB.sctp  "Bandwidth 6:10.0.4.2"  ETV
vector 1116  CAIN.eNodeB.sctp  "HB Sent 6:10.0.4.2"  ETV
vector 1109  CAIN.eNodeB.sctp  "RTO 6:10.0.4.2"  ETV
vector 1165  CAIN.eNodeB.sctp  "Slow Start Threshold 6:10.0.5.2"  ETV
vector 1166  CAIN.eNodeB.sctp  "Congestion Window 6:10.0.5.2"  ETV
vector 1167  CAIN.eNodeB.sctp  "Bandwidth 6:10.0.5.2"  ETV
vector 1163  CAIN.eNodeB.sctp  "RTO 6:10.0.5.2"  ETV
vector 916  CAIN.eNodeB.sctp  "HB ACK Sent 1:10.0.5.2"  ETV
vector 917  CAIN.eNodeB.sctp  "HB Received 1:10.0.5.2"  ETV
vector 965  CAIN.eNodeB1.sctp  "HB ACK Sent 2:10.0.5.1"  ETV
vector 966  CAIN.eNodeB1.sctp  "HB Received 2:10.0.5.1"  ETV
vector 1219  CAIN.eNodeB.sctp  "Slow Start Threshold 1:10.0.3.2"  ETV
vector 1220  CAIN.eNodeB.sctp  "Congestion Window 1:10.0.3.2"  ETV
vector 1221  CAIN.eNodeB.sctp  "Bandwidth 1:10.0.3.2"  ETV
vector 1224  CAIN.eNodeB.sctp  "HB Sent 1:10.0.3.2"  ETV
vector 1217  CAIN.eNodeB.sctp  "RTO 1:10.0.3.2"  ETV
vector 1192  CAIN.eNodeB.sctp  "Slow Start Threshold 1:10.0.4.2"  ETV
vector 1193  CAIN.eNodeB.sctp  "Congestion Window 1:10.0.4.2"  ETV
vector 1194  CAIN.eNodeB.sctp  "Bandwidth 1:10.0.4.2"  ETV
vector 1197  CAIN.eNodeB.sctp  "HB Sent 1:10.0.4.2"  ETV
vector 1190  CAIN.eNodeB.sctp  "RTO 1:10.0.4.2"  ETV
vector 910  CAIN.eNodeB.sctp  "Slow Start Threshold 1:10.0.5.2"  ETV
vector 911  CAIN.eNodeB.sctp  "Congestion Window 1:10.0.5.2"  ETV
vector 912  CAIN.eNodeB.sctp  "Bandwidth 1:10.0.5.2"  ETV
vector 908  CAIN.eNodeB.sctp  "RTO 1:10.0.5.2"  ETV
vector 1273  CAIN.eNodeB1.sctp  "Slow Start Threshold 2:10.0.2.2"  ETV
vector 1274  CAIN.eNodeB1.sctp  "Congestion Window 2:10.0.2.2"  ETV
vector 1275  CAIN.eNodeB1.sctp  "Bandwidth 2:10.0.2.2"  ETV
vector 1278  CAIN.eNodeB1.sctp  "HB Sent 2:10.0.2.2"  ETV
vector 1271  CAIN.eNodeB1.sctp  "RTO 2:10.0.2.2"  ETV
vector 1246  CAIN.eNodeB1.sctp  "Slow Start Threshold 2:10.0.4.1"  ETV
vector 1247  CAIN.eNodeB1.sctp  "Congestion Window 2:10.0.4.1"  ETV
vector 1248  CAIN.eNodeB1.sctp  "Bandwidth 2:10.0.4.1"  ETV
vector 1251  CAIN.eNodeB1.sctp  "HB Sent 2:10.0.4.1"  ETV
vector 1244  CAIN.eNodeB1.sctp  "RTO 2:10.0.4.1"  ETV
vector 959  CAIN.eNodeB1.sctp  "Slow Start Threshold 2:10.0.5.1"  ETV
vector 960  CAIN.eNodeB1.sctp  "Congestion Window 2:10.0.5.1"  ETV
vector 961  CAIN.eNodeB1.sctp  "Bandwidth 2:10.0.5.1"  ETV
vector 957  CAIN.eNodeB1.sctp  "RTO 2:10.0.5.1"  ETV
vector 1173  CAIN.eNodeB.sctp  "HB ACK Received 6:10.0.5.2"  ETV
vector 1164  CAIN.eNodeB.sctp  "RTT 6:10.0.5.2"  ETV
vector 1070  CAIN.eNodeB1.sctp  "HB ACK Received 5:10.0.5.1"  ETV
vector 1061  CAIN.eNodeB1.sctp  "RTT 5:10.0.5.1"  ETV
vector 1171  CAIN.eNodeB.sctp  "HB ACK Sent 6:10.0.5.2"  ETV
vector 1172  CAIN.eNodeB.sctp  "HB Received 6:10.0.5.2"  ETV
vector 1068  CAIN.eNodeB1.sctp  "HB ACK Sent 5:10.0.5.1"  ETV
vector 1069  CAIN.eNodeB1.sctp  "HB Received 5:10.0.5.1"  ETV
vector 967  CAIN.eNodeB1.sctp  "HB ACK Received 2:10.0.5.1"  ETV
vector 958  CAIN.eNodeB1.sctp  "RTT 2:10.0.5.1"  ETV
vector 918  CAIN.eNodeB.sctp  "HB ACK Received 1:10.0.5.2"  ETV
vector 909  CAIN.eNodeB.sctp  "RTT 1:10.0.5.2"  ETV
vector 96  CAIN.eNodeB.nic.mac  receivedPacketFromLowerLayer:vector(packetBytes)  ETV
attr interpolationmode  none
attr source  receivedPacketFromLowerLayer
vector 1305  CAIN.eNodeB.sctp  "SendQueue of Association 6"  ETV
vector 1168  CAIN.eNodeB.sctp  "TSN Sent 6:10.0.5.2"  ETV
vector 1175  CAIN.eNodeB.sctp  "Outstanding Bytes 6:10.0.5.2"  ETV
vector 848  CAIN.eNodeB.sctp  "Outstanding Bytes 3:Total"  ETV
vector 1174  CAIN.eNodeB.sctp  "Queued Sent Bytes 6:10.0.5.2"  ETV
vector 847  CAIN.eNodeB.sctp  "Queued Sent Bytes 3:Total"  ETV
vector 963  CAIN.eNodeB1.sctp  "TSN Received 2:10.0.5.1"  ETV
vector 939  CAIN.eNodeB1.sctp  "Queued Received Bytes 2:Total"  ETV
vector 935  CAIN.eNodeB1.sctp  "Advertised Receiver Window 2"  ETV
vector 944  CAIN.eNodeB1.sctp  "Number of Total Gap Blocks Stored 2"  ETV
vector 945  CAIN.eNodeB1.sctp  "Number of Revokable Gap Blocks Stored 2"  ETV
vector 946  CAIN.eNodeB1.sctp  "Number of Non-Revokable Gap Blocks Stored 2"  ETV
vector 947  CAIN.eNodeB1.sctp  "Number of Duplicate TSNs Stored 2"  ETV
vector 951  CAIN.eNodeB1.sctp  "Length of SACK Sent 2"  ETV
vector 948  CAIN.eNodeB1.sctp  "Number of Revokable Gap Blocks Sent 2"  ETV
vector 949  CAIN.eNodeB1.sctp  "Number of Non-Revokable Gap Blocks Sent 2"  ETV
vector 950  CAIN.eNodeB1.sctp  "Number of Duplicate TSNs Sent 2"  ETV
vector 955  CAIN.eNodeB1.sctp  "End to End Delay of Association 2"  ETV
vector 199  CAIN.eNodeB1.x2App[0].client  rcvdPk:vector(packetBytes)  ETV
attr interpolationmode  none
attr source  rcvdPk
attr title  "packets received, vector(packetBytes)"
vector 1304  CAIN.eNodeB.sctp  "Number of Gap Blocks in Last SACK of Association 6"  ETV
vector 849  CAIN.eNodeB.sctp  "Number of Revokable Gap Blocks in SACK 3"  ETV
vector 850  CAIN.eNodeB.sctp  "Number of Non-Revokable Gap Blocks in SACK 3"  ETV
vector 1185  CAIN.eNodeB.sctp  "TSN Acked CumAck 6:10.0.5.2"  ETV
vector 1151  CAIN.eNodeB.sctp  "Number of Gap Acked Chunks in Last SACK 6:10.0.3.2"  ETV
vector 1152  CAIN.eNodeB.sctp  "Number of Non-Revokable Gap Acked Chunks in Last SACK 6:10.0.3.2"  ETV
vector 1153  CAIN.eNodeB.sctp  "Number of Gap Missed Chunks in Last SACK 6:10.0.3.2"  ETV
vector 1124  CAIN.eNodeB.sctp  "Number of Gap Acked Chunks in Last SACK 6:10.0.4.2"  ETV
vector 1125  CAIN.eNodeB.sctp  "Number of Non-Revokable Gap Acked Chunks in Last SACK 6:10.0.4.2"  ETV
vector 1126  CAIN.eNodeB.sctp  "Number of Gap Missed Chunks in Last SACK 6:10.0.4.2"  ETV
vector 1178  CAIN.eNodeB.sctp  "Number of Gap Acked Chunks in Last SACK 6:10.0.5.2"  ETV
vector 1179  CAIN.eNodeB.sctp  "Number of Non-Revokable Gap Acked Chunks in Last SACK 6:10.0.5.2"  ETV
vector 1180  CAIN.eNodeB.sctp  "Number of Gap Missed Chunks in Last SACK 6:10.0.5.2"  ETV
vector 859  CAIN.eNodeB.sctp  "Arwnd in Last SACK 3"  ETV
vector 1187  CAIN.eNodeB.sctp  "TSN PseudoCumAck 6:10.0.5.2"  ETV
vector 1188  CAIN.eNodeB.sctp  "TSN RTXPseudoCumAck 6:10.0.5.2"  ETV
vector 1181  CAIN.eNodeB.sctp  "Partial Bytes Acked 6:10.0.5.2"  ETV
vector 1333  CAIN.ueD2DTx[13].tcp  tcpRcvQueueBytes  ETV
vector 1320  CAIN.ueD2DTx[13].tcp  "advertised window"  ETV
vector 1319  CAIN.ueD2DTx[13].tcp  "receive window"  ETV
vector 1322  CAIN.ueD2DTx[13].tcp  "sent ack"  ETV
vector 621  CAIN.ueD2DTx[13].nic.pdcpRrc  receivedPacketFromUpperLayer:vector(packetBytes)  ETV
attr interpolationmode  none
attr source  receivedPacketFromUpperLayer
vector 624  CAIN.ueD2DTx[13].nic.pdcpRrc  sentPacketToLowerLayer:vector(packetBytes)  ETV
attr interpolationmode  none
attr source  sentPacketToLowerLayer
vector 625  CAIN.ueD2DTx[13].nic.mac  receivedPacketFromUpperLayer:vector(packetBytes)  ETV
attr interpolationmode  none
attr source  receivedPacketFromUpperLayer
vector 635  CAIN.ueD2DTx[13].nic.mac  CainHopMessageSent:vector  ETV
attr interpolationmode  none
attr title  "# of Sent CAIN hop message, vector"
vector 628  CAIN.ueD2DTx[13].nic.mac  sentPacketToLowerLayer:vector(packetBytes)  ETV
attr interpolationmode  none
attr source  sentPacketToLowerLayer
vector 1357  CAIN.ueD2DTx[19].tcp  tcpRcvQueueBytes  ETV
vector 1344  CAIN.ueD2DTx[19].tcp  "advertised window"  ETV
vector 1343  CAIN.ueD2DTx[19].tcp  "receive window"  ETV
vector 1346  CAIN.ueD2DTx[19].tcp  "sent ack"  ETV
vector 813  CAIN.ueD2DTx[19].nic.pdcpRrc  receivedPacketFromUpperLayer:vector(packetBytes)  ETV
attr interpolationmode  none
attr source  receivedPacketFromUpperLayer
vector 816  CAIN.ueD2DTx[19].nic.pdcpRrc  sentPacketToLowerLayer:vector(packetBytes)  ETV
attr interpolationmode  none
attr source  sentPacketToLowerLayer
vector 817  CAIN.ueD2DTx[19].nic.mac  receivedPacketFromUpperLayer:vector(packetBytes)  ETV
attr interpolationmode  none
attr source  receivedPacketFromUpperLayer
vector 1381  CAIN.ueD2DTx[12].tcp  tcpRcvQueueBytes  ETV
vector 1368  CAIN.ueD2DTx[12].tcp  "advertised window"  ETV
vector 1367  CAIN.ueD2DTx[12].tcp  "receive window"  ETV
vector 1370  CAIN.ueD2DTx[12].tcp  "sent ack"  ETV
vector 589  CAIN.ueD2DTx[12].nic.pdcpRrc  receivedPacketFromUpperLayer:vector(packetBytes)  ETV
attr interpolationmode  none
attr source  receivedPacketFromUpperLayer
vector 592  CAIN.ueD2DTx[12].nic.pdcpRrc  sentPacketToLowerLayer:vector(packetBytes)  ETV
attr interpolationmode  none
attr source  sentPacketToLowerLayer
vector 593  CAIN.ueD2DTx[12].nic.mac  receivedPacketFromUpperLayer:vector(packetBytes)  ETV
attr interpolationmode  none
attr source  receivedPacketFromUpperLayer
vector 603  CAIN.ueD2DTx[12].nic.mac  CainHopMessageSent:vector  ETV
attr interpolationmode  none
attr title  "# of Sent CAIN hop message, vector"
vector 596  CAIN.ueD2DTx[12].nic.mac  sentPacketToLowerLayer:vector(packetBytes)  ETV
attr interpolationmode  none
attr source  sentPacketToLowerLayer
vector 827  CAIN.ueD2DTx[19].nic.mac  CainHopMessageSent:vector  ETV
attr interpolationmode  none
attr title  "# of Sent CAIN hop message, vector"
vector 820  CAIN.ueD2DTx[19].nic.mac  sentPacketToLowerLayer:vector(packetBytes)  ETV
attr interpolationmode  none
attr source  sentPacketToLowerLayer
vector 242  CAIN.ueD2DTx[1].nic.mac  receivedPacketFromLowerLayer:vector(packetBytes)  ETV
attr interpolationmode  none
attr source  receivedPacketFromLowerLayer
vector 244  CAIN.ueD2DTx[1].nic.mac  sentPacketToLowerLayer:vector(packetBytes)  ETV
attr interpolationmode  none
attr source  sentPacketToLowerLayer
vector 210  CAIN.ueD2DTx[0].nic.mac  receivedPacketFromLowerLayer:vector(packetBytes)  ETV
attr interpolationmode  none
attr source  receivedPacketFromLowerLayer
vector 212  CAIN.ueD2DTx[0].nic.mac  sentPacketToLowerLayer:vector(packetBytes)  ETV
attr interpolationmode  none
attr source  sentPacketToLowerLayer
vector 111  CAIN.eNodeB.nic.mac  racpkt:vector  ETV
attr interpolationmode  none
attr title  "eNB received racpkt message, vector"
vector 112  CAIN.eNodeB.nic.mac  racDistanceSignal:vector  ETV
attr interpolationmode  none
attr title  "Rac distance to enb, vector"
vector 113  CAIN.eNodeB.nic.mac  racServedDevsSignal:vector  ETV
attr interpolationmode  none
attr title  "# of devices served on rac arriavall, vector"
vector 106  CAIN.eNodeB.nic.mac  DistanceSignal:vector  ETV
attr interpolationmode  none
attr title  "Distance to enb, vector"
vector 101  CAIN.eNodeB.nic.mac  CainHopMessage:vector  ETV
attr interpolationmode  none
attr title  "eNB received CAIN hop message, vector"
vector 98  CAIN.eNodeB.nic.mac  sentPacketToLowerLayer:vector(packetBytes)  ETV
attr interpolationmode  none
attr source  sentPacketToLowerLayer
vector 217  CAIN.ueD2DTx[0].nic.mac  DropedHopMessage:vector  ETV
attr interpolationmode  none
attr title  "Droped Hop CAIN message due to RB not available, vector"
vector 1405  CAIN.ueD2DTx[11].tcp  tcpRcvQueueBytes  ETV
vector 1392  CAIN.ueD2DTx[11].tcp  "advertised window"  ETV
vector 1391  CAIN.ueD2DTx[11].tcp  "receive window"  ETV
vector 1394  CAIN.ueD2DTx[11].tcp  "sent ack"  ETV
vector 557  CAIN.ueD2DTx[11].nic.pdcpRrc  receivedPacketFromUpperLayer:vector(packetBytes)  ETV
attr interpolationmode  none
attr source  receivedPacketFromUpperLayer
vector 560  CAIN.ueD2DTx[11].nic.pdcpRrc  sentPacketToLowerLayer:vector(packetBytes)  ETV
attr interpolationmode  none
attr source  sentPacketToLowerLayer
vector 561  CAIN.ueD2DTx[11].nic.mac  receivedPacketFromUpperLayer:vector(packetBytes)  ETV
attr interpolationmode  none
attr source  receivedPacketFromUpperLayer
vector 571  CAIN.ueD2DTx[11].nic.mac  CainHopMessageSent:vector  ETV
attr interpolationmode  none
attr title  "# of Sent CAIN hop message, vector"
vector 564  CAIN.ueD2DTx[11].nic.mac  sentPacketToLowerLayer:vector(packetBytes)  ETV
attr interpolationmode  none
attr source  sentPacketToLowerLayer
vector 1429  CAIN.ueD2DTx[7].tcp  tcpRcvQueueBytes  ETV
vector 1416  CAIN.ueD2DTx[7].tcp  "advertised window"  ETV
vector 1415  CAIN.ueD2DTx[7].tcp  "receive window"  ETV
vector 1418  CAIN.ueD2DTx[7].tcp  "sent ack"  ETV
vector 429  CAIN.ueD2DTx[7].nic.pdcpRrc  receivedPacketFromUpperLayer:vector(packetBytes)  ETV
attr interpolationmode  none
attr source  receivedPacketFromUpperLayer
vector 432  CAIN.ueD2DTx[7].nic.pdcpRrc  sentPacketToLowerLayer:vector(packetBytes)  ETV
attr interpolationmode  none
attr source  sentPacketToLowerLayer
vector 433  CAIN.ueD2DTx[7].nic.mac  receivedPacketFromUpperLayer:vector(packetBytes)  ETV
attr interpolationmode  none
attr source  receivedPacketFromUpperLayer
vector 443  CAIN.ueD2DTx[7].nic.mac  CainHopMessageSent:vector  ETV
attr interpolationmode  none
attr title  "# of Sent CAIN hop message, vector"
vector 436  CAIN.ueD2DTx[7].nic.mac  sentPacketToLowerLayer:vector(packetBytes)  ETV
attr interpolationmode  none
attr source  sentPacketToLowerLayer
vector 1453  CAIN.ueD2DTx[6].tcp  tcpRcvQueueBytes  ETV
vector 1440  CAIN.ueD2DTx[6].tcp  "advertised window"  ETV
vector 1439  CAIN.ueD2DTx[6].tcp  "receive window"  ETV
vector 1442  CAIN.ueD2DTx[6].tcp  "sent ack"  ETV
vector 397  CAIN.ueD2DTx[6].nic.pdcpRrc  receivedPacketFromUpperLayer:vector(packetBytes)  ETV
attr interpolationmode  none
attr source  receivedPacketFromUpperLayer
vector 400  CAIN.ueD2DTx[6].nic.pdcpRrc  sentPacketToLowerLayer:vector(packetBytes)  ETV
attr interpolationmode  none
attr source  sentPacketToLowerLayer
vector 401  CAIN.ueD2DTx[6].nic.mac  receivedPacketFromUpperLayer:vector(packetBytes)  ETV
attr interpolationmode  none
attr source  receivedPacketFromUpperLayer
vector 411  CAIN.ueD2DTx[6].nic.mac  CainHopMessageSent:vector  ETV
attr interpolationmode  none
attr title  "# of Sent CAIN hop message, vector"
vector 404  CAIN.ueD2DTx[6].nic.mac  sentPacketToLowerLayer:vector(packetBytes)  ETV
attr interpolationmode  none
attr source  sentPacketToLowerLayer
vector 1477  CAIN.ueD2DTx[2].tcp  tcpRcvQueueBytes  ETV
vector 1464  CAIN.ueD2DTx[2].tcp  "advertised window"  ETV
vector 1463  CAIN.ueD2DTx[2].tcp  "receive window"  ETV
vector 1466  CAIN.ueD2DTx[2].tcp  "sent ack"  ETV
vector 269  CAIN.ueD2DTx[2].nic.pdcpRrc  receivedPacketFromUpperLayer:vector(packetBytes)  ETV
attr interpolationmode  none
attr source  receivedPacketFromUpperLayer
vector 272  CAIN.ueD2DTx[2].nic.pdcpRrc  sentPacketToLowerLayer:vector(packetBytes)  ETV
attr interpolationmode  none
attr source  sentPacketToLowerLayer
vector 273  CAIN.ueD2DTx[2].nic.mac  receivedPacketFromUpperLayer:vector(packetBytes)  ETV
attr interpolationmode  none
attr source  receivedPacketFromUpperLayer
vector 282  CAIN.ueD2DTx[2].nic.mac  CainMessageSent:vector  ETV
attr interpolationmode  none
attr title  "# of Sent CAIN message, vector"
vector 276  CAIN.ueD2DTx[2].nic.mac  sentPacketToLowerLayer:vector(packetBytes)  ETV
attr interpolationmode  none
attr source  sentPacketToLowerLayer
vector 1501  CAIN.ueD2DTx[10].tcp  tcpRcvQueueBytes  ETV
vector 1488  CAIN.ueD2DTx[10].tcp  "advertised window"  ETV
vector 1487  CAIN.ueD2DTx[10].tcp  "receive window"  ETV
vector 1490  CAIN.ueD2DTx[10].tcp  "sent ack"  ETV
vector 525  CAIN.ueD2DTx[10].nic.pdcpRrc  receivedPacketFromUpperLayer:vector(packetBytes)  ETV
attr interpolationmode  none
attr source  receivedPacketFromUpperLayer
vector 528  CAIN.ueD2DTx[10].nic.pdcpRrc  sentPacketToLowerLayer:vector(packetBytes)  ETV
attr interpolationmode  none
attr source  sentPacketToLowerLayer
vector 529  CAIN.ueD2DTx[10].nic.mac  receivedPacketFromUpperLayer:vector(packetBytes)  ETV
attr interpolationmode  none
attr source  receivedPacketFromUpperLayer
vector 1525  CAIN.ueD2DTx[14].tcp  tcpRcvQueueBytes  ETV
vector 1512  CAIN.ueD2DTx[14].tcp  "advertised window"  ETV
vector 1511  CAIN.ueD2DTx[14].tcp  "receive window"  ETV
vector 1514  CAIN.ueD2DTx[14].tcp  "sent ack"  ETV
vector 653  CAIN.ueD2DTx[14].nic.pdcpRrc  receivedPacketFromUpperLayer:vector(packetBytes)  ETV
attr interpolationmode  none
attr source  receivedPacketFromUpperLayer
vector 656  CAIN.ueD2DTx[14].nic.pdcpRrc  sentPacketToLowerLayer:vector(packetBytes)  ETV
attr interpolationmode  none
attr source  sentPacketToLowerLayer
vector 657  CAIN.ueD2DTx[14].nic.mac  receivedPacketFromUpperLayer:vector(packetBytes)  ETV
attr interpolationmode  none
attr source  receivedPacketFromUpperLayer
vector 539  CAIN.ueD2DTx[10].nic.mac  CainHopMessageSent:vector  ETV
attr interpolationmode  none
attr title  "# of Sent CAIN hop message, vector"
vector 532  CAIN.ueD2DTx[10].nic.mac  sentPacketToLowerLayer:vector(packetBytes)  ETV
attr interpolationmode  none
attr source  sentPacketToLowerLayer
vector 667  CAIN.ueD2DTx[14].nic.mac  CainHopMessageSent:vector  ETV
attr interpolationmode  none
attr title  "# of Sent CAIN hop message, vector"
vector 660  CAIN.ueD2DTx[14].nic.mac  sentPacketToLowerLayer:vector(packetBytes)  ETV
attr interpolationmode  none
attr source  sentPacketToLowerLayer
vector 100  CAIN.eNodeB.nic.mac  CainMessage:vector  ETV
attr interpolationmode  none
attr title  "eNB received CAIN message, vector"
vector 216  CAIN.ueD2DTx[0].nic.mac  DropedCainMessage:vector  ETV
attr interpolationmode  none
attr title  "Droped CAIN message due to RB not available, vector"
vector 1549  CAIN.ueD2DTx[4].tcp  tcpRcvQueueBytes  ETV
vector 1536  CAIN.ueD2DTx[4].tcp  "advertised window"  ETV
vector 1535  CAIN.ueD2DTx[4].tcp  "receive window"  ETV
vector 1538  CAIN.ueD2DTx[4].tcp  "sent ack"  ETV
vector 333  CAIN.ueD2DTx[4].nic.pdcpRrc  receivedPacketFromUpperLayer:vector(packetBytes)  ETV
attr interpolationmode  none
attr source  receivedPacketFromUpperLayer
vector 336  CAIN.ueD2DTx[4].nic.pdcpRrc  sentPacketToLowerLayer:vector(packetBytes)  ETV
attr interpolationmode  none
attr source  sentPacketToLowerLayer
vector 337  CAIN.ueD2DTx[4].nic.mac  receivedPacketFromUpperLayer:vector(packetBytes)  ETV
attr interpolationmode  none
attr source  receivedPacketFromUpperLayer
vector 347  CAIN.ueD2DTx[4].nic.mac  CainHopMessageSent:vector  ETV
attr interpolationmode  none
attr title  "# of Sent CAIN hop message, vector"
vector 340  CAIN.ueD2DTx[4].nic.mac  sentPacketToLowerLayer:vector(packetBytes)  ETV
attr interpolationmode  none
attr source  sentPacketToLowerLayer
vector 1573  CAIN.ueD2DTx[8].tcp  tcpRcvQueueBytes  ETV
vector 1560  CAIN.ueD2DTx[8].tcp  "advertised window"  ETV
vector 1559  CAIN.ueD2DTx[8].tcp  "receive window"  ETV
vector 1562  CAIN.ueD2DTx[8].tcp  "sent ack"  ETV
vector 461  CAIN.ueD2DTx[8].nic.pdcpRrc  receivedPacketFromUpperLayer:vector(packetBytes)  ETV
attr interpolationmode  none
attr source  receivedPacketFromUpperLayer
vector 464  CAIN.ueD2DTx[8].nic.pdcpRrc  sentPacketToLowerLayer:vector(packetBytes)  ETV
attr interpolationmode  none
attr source  sentPacketToLowerLayer
vector 465  CAIN.ueD2DTx[8].nic.mac  receivedPacketFromUpperLayer:vector(packetBytes)  ETV
attr interpolationmode  none
attr source  receivedPacketFromUpperLayer
vector 475  CAIN.ueD2DTx[8].nic.mac  CainHopMessageSent:vector  ETV
attr interpolationmode  none
attr title  "# of Sent CAIN hop message, vector"
vector 468  CAIN.ueD2DTx[8].nic.mac  sentPacketToLowerLayer:vector(packetBytes)  ETV
attr interpolationmode  none
attr source  sentPacketToLowerLayer
vector 1597  CAIN.ueD2DTx[9].tcp  tcpRcvQueueBytes  ETV
vector 1584  CAIN.ueD2DTx[9].tcp  "advertised window"  ETV
vector 1583  CAIN.ueD2DTx[9].tcp  "receive window"  ETV
vector 1586  CAIN.ueD2DTx[9].tcp  "sent ack"  ETV
vector 493  CAIN.ueD2DTx[9].nic.pdcpRrc  receivedPacketFromUpperLayer:vector(packetBytes)  ETV
attr interpolationmode  none
attr source  receivedPacketFromUpperLayer
vector 496  CAIN.ueD2DTx[9].nic.pdcpRrc  sentPacketToLowerLayer:vector(packetBytes)  ETV
attr interpolationmode  none
attr source  sentPacketToLowerLayer
vector 497  CAIN.ueD2DTx[9].nic.mac  receivedPacketFromUpperLayer:vector(packetBytes)  ETV
attr interpolationmode  none
attr source  receivedPacketFromUpperLayer
vector 507  CAIN.ueD2DTx[9].nic.mac  CainHopMessageSent:vector  ETV
attr interpolationmode  none
attr title  "# of Sent CAIN hop message, vector"
vector 500  CAIN.ueD2DTx[9].nic.mac  sentPacketToLowerLayer:vector(packetBytes)  ETV
attr interpolationmode  none
attr source  sentPacketToLowerLayer
vector 1621  CAIN.ueD2DTx[15].tcp  tcpRcvQueueBytes  ETV
vector 1608  CAIN.ueD2DTx[15].tcp  "advertised window"  ETV
vector 1607  CAIN.ueD2DTx[15].tcp  "receive window"  ETV
vector 1610  CAIN.ueD2DTx[15].tcp  "sent ack"  ETV
vector 685  CAIN.ueD2DTx[15].nic.pdcpRrc  receivedPacketFromUpperLayer:vector(packetBytes)  ETV
attr interpolationmode  none
attr source  receivedPacketFromUpperLayer
vector 688  CAIN.ueD2DTx[15].nic.pdcpRrc  sentPacketToLowerLayer:vector(packetBytes)  ETV
attr interpolationmode  none
attr source  sentPacketToLowerLayer
vector 689  CAIN.ueD2DTx[15].nic.mac  receivedPacketFromUpperLayer:vector(packetBytes)  ETV
attr interpolationmode  none
attr source  receivedPacketFromUpperLayer
vector 699  CAIN.ueD2DTx[15].nic.mac  CainHopMessageSent:vector  ETV
attr interpolationmode  none
attr title  "# of Sent CAIN hop message, vector"
vector 692  CAIN.ueD2DTx[15].nic.mac  sentPacketToLowerLayer:vector(packetBytes)  ETV
attr interpolationmode  none
attr source  sentPacketToLowerLayer
vector 1645  CAIN.ueD2DTx[17].tcp  tcpRcvQueueBytes  ETV
vector 1632  CAIN.ueD2DTx[17].tcp  "advertised window"  ETV
vector 1631  CAIN.ueD2DTx[17].tcp  "receive window"  ETV
vector 1634  CAIN.ueD2DTx[17].tcp  "sent ack"  ETV
vector 749  CAIN.ueD2DTx[17].nic.pdcpRrc  receivedPacketFromUpperLayer:vector(packetBytes)  ETV
attr interpolationmode  none
attr source  receivedPacketFromUpperLayer
vector 752  CAIN.ueD2DTx[17].nic.pdcpRrc  sentPacketToLowerLayer:vector(packetBytes)  ETV
attr interpolationmode  none
attr source  sentPacketToLowerLayer
vector 753  CAIN.ueD2DTx[17].nic.mac  receivedPacketFromUpperLayer:vector(packetBytes)  ETV
attr interpolationmode  none
attr source  receivedPacketFromUpperLayer
vector 1669  CAIN.ueD2DTx[0].tcp  tcpRcvQueueBytes  ETV
vector 1656  CAIN.ueD2DTx[0].tcp  "advertised window"  ETV
vector 1655  CAIN.ueD2DTx[0].tcp  "receive window"  ETV
vector 1658  CAIN.ueD2DTx[0].tcp  "sent ack"  ETV
vector 205  CAIN.ueD2DTx[0].nic.pdcpRrc  receivedPacketFromUpperLayer:vector(packetBytes)  ETV
attr interpolationmode  none
attr source  receivedPacketFromUpperLayer
vector 208  CAIN.ueD2DTx[0].nic.pdcpRrc  sentPacketToLowerLayer:vector(packetBytes)  ETV
attr interpolationmode  none
attr source  sentPacketToLowerLayer
vector 209  CAIN.ueD2DTx[0].nic.mac  receivedPacketFromUpperLayer:vector(packetBytes)  ETV
attr interpolationmode  none
attr source  receivedPacketFromUpperLayer
vector 763  CAIN.ueD2DTx[17].nic.mac  CainHopMessageSent:vector  ETV
attr interpolationmode  none
attr title  "# of Sent CAIN hop message, vector"
vector 756  CAIN.ueD2DTx[17].nic.mac  sentPacketToLowerLayer:vector(packetBytes)  ETV
attr interpolationmode  none
attr source  sentPacketToLowerLayer
vector 1301  CAIN.eNodeB1.sctp  "SendQueue of Association 5"  ETV
vector 1065  CAIN.eNodeB1.sctp  "TSN Sent 5:10.0.5.1"  ETV
vector 1072  CAIN.eNodeB1.sctp  "Outstanding Bytes 5:10.0.5.1"  ETV
vector 870  CAIN.eNodeB1.sctp  "Outstanding Bytes 4:Total"  ETV
vector 1071  CAIN.eNodeB1.sctp  "Queued Sent Bytes 5:10.0.5.1"  ETV
vector 869  CAIN.eNodeB1.sctp  "Queued Sent Bytes 4:Total"  ETV
vector 108  CAIN.eNodeB.nic.mac  ServedDevs:vector  ETV
attr interpolationmode  none
attr title  "# of devices served on cain forwarding, vector"
vector 109  CAIN.eNodeB.nic.mac  ServedHopDevs:vector  ETV
attr interpolationmode  none
attr title  "# of devices served on hop forwarding, vector"
vector 914  CAIN.eNodeB.sctp  "TSN Received 1:10.0.5.2"  ETV
vector 890  CAIN.eNodeB.sctp  "Queued Received Bytes 1:Total"  ETV
vector 886  CAIN.eNodeB.sctp  "Advertised Receiver Window 1"  ETV
vector 895  CAIN.eNodeB.sctp  "Number of Total Gap Blocks Stored 1"  ETV
vector 896  CAIN.eNodeB.sctp  "Number of Revokable Gap Blocks Stored 1"  ETV
vector 897  CAIN.eNodeB.sctp  "Number of Non-Revokable Gap Blocks Stored 1"  ETV
vector 898  CAIN.eNodeB.sctp  "Number of Duplicate TSNs Stored 1"  ETV
vector 902  CAIN.eNodeB.sctp  "Length of SACK Sent 1"  ETV
vector 899  CAIN.eNodeB.sctp  "Number of Revokable Gap Blocks Sent 1"  ETV
vector 900  CAIN.eNodeB.sctp  "Number of Non-Revokable Gap Blocks Sent 1"  ETV
vector 901  CAIN.eNodeB.sctp  "Number of Duplicate TSNs Sent 1"  ETV
vector 906  CAIN.eNodeB.sctp  "End to End Delay of Association 1"  ETV
vector 141  CAIN.eNodeB.x2App[0].client  rcvdPk:vector(packetBytes)  ETV
attr interpolationmode  none
attr source  rcvdPk
attr title  "packets received, vector(packetBytes)"
vector 1300  CAIN.eNodeB1.sctp  "Number of Gap Blocks in Last SACK of Association 5"  ETV
vector 871  CAIN.eNodeB1.sctp  "Number of Revokable Gap Blocks in SACK 4"  ETV
vector 872  CAIN.eNodeB1.sctp  "Number of Non-Revokable Gap Blocks in SACK 4"  ETV
vector 1082  CAIN.eNodeB1.sctp  "TSN Acked CumAck 5:10.0.5.1"  ETV
vector 1048  CAIN.eNodeB1.sctp  "Number of Gap Acked Chunks in Last SACK 5:10.0.2.2"  ETV
vector 1049  CAIN.eNodeB1.sctp  "Number of Non-Revokable Gap Acked Chunks in Last SACK 5:10.0.2.2"  ETV
vector 1050  CAIN.eNodeB1.sctp  "Number of Gap Missed Chunks in Last SACK 5:10.0.2.2"  ETV
vector 1021  CAIN.eNodeB1.sctp  "Number of Gap Acked Chunks in Last SACK 5:10.0.4.1"  ETV
vector 1022  CAIN.eNodeB1.sctp  "Number of Non-Revokable Gap Acked Chunks in Last SACK 5:10.0.4.1"  ETV
vector 1023  CAIN.eNodeB1.sctp  "Number of Gap Missed Chunks in Last SACK 5:10.0.4.1"  ETV
vector 1075  CAIN.eNodeB1.sctp  "Number of Gap Acked Chunks in Last SACK 5:10.0.5.1"  ETV
vector 1076  CAIN.eNodeB1.sctp  "Number of Non-Revokable Gap Acked Chunks in Last SACK 5:10.0.5.1"  ETV
vector 1077  CAIN.eNodeB1.sctp  "Number of Gap Missed Chunks in Last SACK 5:10.0.5.1"  ETV
vector 881  CAIN.eNodeB1.sctp  "Arwnd in Last SACK 4"  ETV
vector 1084  CAIN.eNodeB1.sctp  "TSN PseudoCumAck 5:10.0.5.1"  ETV
vector 1085  CAIN.eNodeB1.sctp  "TSN RTXPseudoCumAck 5:10.0.5.1"  ETV
vector 1078  CAIN.eNodeB1.sctp  "Partial Bytes Acked 5:10.0.5.1"  ETV
vector 1693  CAIN.ueD2DTx[1].tcp  tcpRcvQueueBytes  ETV
vector 1680  CAIN.ueD2DTx[1].tcp  "advertised window"  ETV
vector 1679  CAIN.ueD2DTx[1].tcp  "receive window"  ETV
vector 1682  CAIN.ueD2DTx[1].tcp  "sent ack"  ETV
vector 237  CAIN.ueD2DTx[1].nic.pdcpRrc  receivedPacketFromUpperLayer:vector(packetBytes)  ETV
attr interpolationmode  none
attr source  receivedPacketFromUpperLayer
vector 240  CAIN.ueD2DTx[1].nic.pdcpRrc  sentPacketToLowerLayer:vector(packetBytes)  ETV
attr interpolationmode  none
attr source  sentPacketToLowerLayer
vector 241  CAIN.ueD2DTx[1].nic.mac  receivedPacketFromUpperLayer:vector(packetBytes)  ETV
attr interpolationmode  none
attr source  receivedPacketFromUpperLayer
vector 250  CAIN.ueD2DTx[1].nic.mac  CainMessageSent:vector  ETV
attr interpolationmode  none
attr title  "# of Sent CAIN message, vector"
vector 115  CAIN.eNodeB.nic.phy  averageCqiUlvect:vector  ETV
attr source  averageCqiUlvect
attr title  "Average Cqi reported in UL, vector"
attr unit  cqi
vector 99  CAIN.eNodeB.nic.mac  measuredItbs:vector  ETV
attr source  measuredItbs
attr title  "TBS index, vector"
attr unit  ""
vector 498  CAIN.ueD2DTx[9].nic.mac  receivedPacketFromLowerLayer:vector(packetBytes)  ETV
attr interpolationmode  none
attr source  receivedPacketFromLowerLayer
vector 818  CAIN.ueD2DTx[19].nic.mac  receivedPacketFromLowerLayer:vector(packetBytes)  ETV
attr interpolationmode  none
attr source  receivedPacketFromLowerLayer
vector 1717  CAIN.ueD2DTx[5].tcp  tcpRcvQueueBytes  ETV
vector 1704  CAIN.ueD2DTx[5].tcp  "advertised window"  ETV
vector 1703  CAIN.ueD2DTx[5].tcp  "receive window"  ETV
vector 1706  CAIN.ueD2DTx[5].tcp  "sent ack"  ETV
vector 365  CAIN.ueD2DTx[5].nic.pdcpRrc  receivedPacketFromUpperLayer:vector(packetBytes)  ETV
attr interpolationmode  none
attr source  receivedPacketFromUpperLayer
vector 368  CAIN.ueD2DTx[5].nic.pdcpRrc  sentPacketToLowerLayer:vector(packetBytes)  ETV
attr interpolationmode  none
attr source  sentPacketToLowerLayer
vector 369  CAIN.ueD2DTx[5].nic.mac  receivedPacketFromUpperLayer:vector(packetBytes)  ETV
attr interpolationmode  none
attr source  receivedPacketFromUpperLayer
vector 372  CAIN.ueD2DTx[5].nic.mac  sentPacketToLowerLayer:vector(packetBytes)  ETV
attr interpolationmode  none
attr source  sentPacketToLowerLayer
vector 154  CAIN.eNodeB1.nic.mac  receivedPacketFromLowerLayer:vector(packetBytes)  ETV
attr interpolationmode  none
attr source  receivedPacketFromLowerLayer
vector 434  CAIN.ueD2DTx[7].nic.mac  receivedPacketFromLowerLayer:vector(packetBytes)  ETV
attr interpolationmode  none
attr source  receivedPacketFromLowerLayer
vector 530  CAIN.ueD2DTx[10].nic.mac  receivedPacketFromLowerLayer:vector(packetBytes)  ETV
attr interpolationmode  none
attr source  receivedPacketFromLowerLayer
vector 211  CAIN.ueD2DTx[0].nic.mac  sentPacketToUpperLayer:vector(packetBytes)  ETV
attr interpolationmode  none
attr source  sentPacketToUpperLayer
vector 499  CAIN.ueD2DTx[9].nic.mac  sentPacketToUpperLayer:vector(packetBytes)  ETV
attr interpolationmode  none
attr source  sentPacketToUpperLayer
vector 819  CAIN.ueD2DTx[19].nic.mac  sentPacketToUpperLayer:vector(packetBytes)  ETV
attr interpolationmode  none
attr source  sentPacketToUpperLayer
vector 169  CAIN.eNodeB1.nic.mac  racpkt:vector  ETV
attr interpolationmode  none
attr title  "eNB received racpkt message, vector"
vector 170  CAIN.eNodeB1.nic.mac  racDistanceSignal:vector  ETV
attr interpolationmode  none
attr title  "Rac distance to enb, vector"
vector 171  CAIN.eNodeB1.nic.mac  racServedDevsSignal:vector  ETV
attr interpolationmode  none
attr title  "# of devices served on rac arriavall, vector"
vector 156  CAIN.eNodeB1.nic.mac  sentPacketToLowerLayer:vector(packetBytes)  ETV
attr interpolationmode  none
attr source  sentPacketToLowerLayer
vector 402  CAIN.ueD2DTx[6].nic.mac  receivedPacketFromLowerLayer:vector(packetBytes)  ETV
attr interpolationmode  none
attr source  receivedPacketFromLowerLayer
vector 435  CAIN.ueD2DTx[7].nic.mac  sentPacketToUpperLayer:vector(packetBytes)  ETV
attr interpolationmode  none
attr source  sentPacketToUpperLayer
vector 531  CAIN.ueD2DTx[10].nic.mac  sentPacketToUpperLayer:vector(packetBytes)  ETV
attr interpolationmode  none
attr source  sentPacketToUpperLayer
vector 262  CAIN.ueD2DTx[1].nic.phy  averageCqiD2Dvect:vector  ETV
attr source  averageCqiD2Dvect
attr title  "Average Cqi reported in D2D, vector"
attr unit  cqi
vector 370  CAIN.ueD2DTx[5].nic.mac  receivedPacketFromLowerLayer:vector(packetBytes)  ETV
attr interpolationmode  none
attr source  receivedPacketFromLowerLayer
vector 562  CAIN.ueD2DTx[11].nic.mac  receivedPacketFromLowerLayer:vector(packetBytes)  ETV
attr interpolationmode  none
attr source  receivedPacketFromLowerLayer
vector 1741  CAIN.ueD2DTx[3].tcp  tcpRcvQueueBytes  ETV
vector 1728  CAIN.ueD2DTx[3].tcp  "advertised window"  ETV
vector 1727  CAIN.ueD2DTx[3].tcp  "receive window"  ETV
vector 1730  CAIN.ueD2DTx[3].tcp  "sent ack"  ETV
vector 301  CAIN.ueD2DTx[3].nic.pdcpRrc  receivedPacketFromUpperLayer:vector(packetBytes)  ETV
attr interpolationmode  none
attr source  receivedPacketFromUpperLayer
vector 304  CAIN.ueD2DTx[3].nic.pdcpRrc  sentPacketToLowerLayer:vector(packetBytes)  ETV
attr interpolationmode  none
attr source  sentPacketToLowerLayer
vector 305  CAIN.ueD2DTx[3].nic.mac  receivedPacketFromUpperLayer:vector(packetBytes)  ETV
attr interpolationmode  none
attr source  receivedPacketFromUpperLayer
vector 315  CAIN.ueD2DTx[3].nic.mac  CainHopMessageSent:vector  ETV
attr interpolationmode  none
attr title  "# of Sent CAIN hop message, vector"
vector 308  CAIN.ueD2DTx[3].nic.mac  sentPacketToLowerLayer:vector(packetBytes)  ETV
attr interpolationmode  none
attr source  sentPacketToLowerLayer
vector 594  CAIN.ueD2DTx[12].nic.mac  receivedPacketFromLowerLayer:vector(packetBytes)  ETV
attr interpolationmode  none
attr source  receivedPacketFromLowerLayer
vector 563  CAIN.ueD2DTx[11].nic.mac  sentPacketToUpperLayer:vector(packetBytes)  ETV
attr interpolationmode  none
attr source  sentPacketToUpperLayer
vector 722  CAIN.ueD2DTx[16].nic.mac  receivedPacketFromLowerLayer:vector(packetBytes)  ETV
attr interpolationmode  none
attr source  receivedPacketFromLowerLayer
vector 724  CAIN.ueD2DTx[16].nic.mac  sentPacketToLowerLayer:vector(packetBytes)  ETV
attr interpolationmode  none
attr source  sentPacketToLowerLayer
vector 754  CAIN.ueD2DTx[17].nic.mac  receivedPacketFromLowerLayer:vector(packetBytes)  ETV
attr interpolationmode  none
attr source  receivedPacketFromLowerLayer
vector 243  CAIN.ueD2DTx[1].nic.mac  sentPacketToUpperLayer:vector(packetBytes)  ETV
attr interpolationmode  none
attr source  sentPacketToUpperLayer
vector 238  CAIN.ueD2DTx[1].nic.pdcpRrc  receivedPacketFromLowerLayer:vector(packetBytes)  ETV
attr interpolationmode  none
attr source  receivedPacketFromLowerLayer
vector 239  CAIN.ueD2DTx[1].nic.pdcpRrc  sentPacketToUpperLayer:vector(packetBytes)  ETV
attr interpolationmode  none
attr source  sentPacketToUpperLayer
vector 786  CAIN.ueD2DTx[18].nic.mac  receivedPacketFromLowerLayer:vector(packetBytes)  ETV
attr interpolationmode  none
attr source  receivedPacketFromLowerLayer
vector 788  CAIN.ueD2DTx[18].nic.mac  sentPacketToLowerLayer:vector(packetBytes)  ETV
attr interpolationmode  none
attr source  sentPacketToLowerLayer
vector 251  CAIN.ueD2DTx[1].nic.mac  CainHopMessageSent:vector  ETV
attr interpolationmode  none
attr title  "# of Sent CAIN hop message, vector"
vector 283  CAIN.ueD2DTx[2].nic.mac  CainHopMessageSent:vector  ETV
attr interpolationmode  none
attr title  "# of Sent CAIN hop message, vector"
vector 97  CAIN.eNodeB.nic.mac  sentPacketToUpperLayer:vector(packetBytes)  ETV
attr interpolationmode  none
attr source  sentPacketToUpperLayer
vector 92  CAIN.eNodeB.nic.pdcpRrc  receivedPacketFromLowerLayer:vector(packetBytes)  ETV
attr interpolationmode  none
attr source  receivedPacketFromLowerLayer
vector 93  CAIN.eNodeB.nic.pdcpRrc  sentPacketToUpperLayer:vector(packetBytes)  ETV
attr interpolationmode  none
attr source  sentPacketToUpperLayer
vector 91  CAIN.eNodeB.nic.pdcpRrc  receivedPacketFromUpperLayer:vector(packetBytes)  ETV
attr interpolationmode  none
attr source  receivedPacketFromUpperLayer
vector 94  CAIN.eNodeB.nic.pdcpRrc  sentPacketToLowerLayer:vector(packetBytes)  ETV
attr interpolationmode  none
attr source  sentPacketToLowerLayer
vector 95  CAIN.eNodeB.nic.mac  receivedPacketFromUpperLayer:vector(packetBytes)  ETV
attr interpolationmode  none
attr source  receivedPacketFromUpperLayer
vector 228  CAIN.ueD2DTx[0].nic.phy  averageCqiDlvect:vector  ETV
attr source  averageCqiDlvect
attr title  "Average Cqi reported in DL, vector"
attr unit  cqi
vector 1765  CAIN.ueD2DTx[16].tcp  tcpRcvQueueBytes  ETV
vector 1752  CAIN.ueD2DTx[16].tcp  "advertised window"  ETV
vector 1751  CAIN.ueD2DTx[16].tcp  "receive window"  ETV
vector 1754  CAIN.ueD2DTx[16].tcp  "sent ack"  ETV
vector 717  CAIN.ueD2DTx[16].nic.pdcpRrc  receivedPacketFromUpperLayer:vector(packetBytes)  ETV
attr interpolationmode  none
attr source  receivedPacketFromUpperLayer
vector 720  CAIN.ueD2DTx[16].nic.pdcpRrc  sentPacketToLowerLayer:vector(packetBytes)  ETV
attr interpolationmode  none
attr source  sentPacketToLowerLayer
vector 721  CAIN.ueD2DTx[16].nic.mac  receivedPacketFromUpperLayer:vector(packetBytes)  ETV
attr interpolationmode  none
attr source  receivedPacketFromUpperLayer
vector 206  CAIN.ueD2DTx[0].nic.pdcpRrc  receivedPacketFromLowerLayer:vector(packetBytes)  ETV
attr interpolationmode  none
attr source  receivedPacketFromLowerLayer
vector 207  CAIN.ueD2DTx[0].nic.pdcpRrc  sentPacketToUpperLayer:vector(packetBytes)  ETV
attr interpolationmode  none
attr source  sentPacketToUpperLayer
vector 1789  CAIN.ueD2DTx[18].tcp  tcpRcvQueueBytes  ETV
vector 1776  CAIN.ueD2DTx[18].tcp  "advertised window"  ETV
vector 1775  CAIN.ueD2DTx[18].tcp  "receive window"  ETV
vector 1778  CAIN.ueD2DTx[18].tcp  "sent ack"  ETV
vector 781  CAIN.ueD2DTx[18].nic.pdcpRrc  receivedPacketFromUpperLayer:vector(packetBytes)  ETV
attr interpolationmode  none
attr source  receivedPacketFromUpperLayer
vector 784  CAIN.ueD2DTx[18].nic.pdcpRrc  sentPacketToLowerLayer:vector(packetBytes)  ETV
attr interpolationmode  none
attr source  sentPacketToLowerLayer
vector 785  CAIN.ueD2DTx[18].nic.mac  receivedPacketFromUpperLayer:vector(packetBytes)  ETV
attr interpolationmode  none
attr source  receivedPacketFromUpperLayer
vector 602  CAIN.ueD2DTx[12].nic.mac  CainMessageSent:vector  ETV
attr interpolationmode  none
attr title  "# of Sent CAIN message, vector"
vector 626  CAIN.ueD2DTx[13].nic.mac  receivedPacketFromLowerLayer:vector(packetBytes)  ETV
attr interpolationmode  none
attr source  receivedPacketFromLowerLayer
vector 173  CAIN.eNodeB1.nic.phy  averageCqiUlvect:vector  ETV
attr source  averageCqiUlvect
attr title  "Average Cqi reported in UL, vector"
attr unit  cqi
8	0	0	0
9	0	0	0
24	0	0	0
25	0	0	0
35	0	0	0
36	0	0	0
56	0	0	0
57	0	0	0
67	0	0	0
68	0	0	0
78	0	0	0
79	0	0	0
91	5127	0.073	44
91	5181	0.074	44
91	5801	0.082	44
91	5913	0.084	44
91	6245	0.089	44
92	5122	0.073	45
92	5174	0.074	45
92	5796	0.082	45
92	5908	0.084	45
92	6240	0.089	45
93	5122	0.073	44
93	5174	0.074	44
93	5796	0.082	44
93	5908	0.084	44
93	6240	0.089	44
94	5127	0.073	45
94	5181	0.074	45
94	5801	0.082	45
94	5913	0.084	45
94	6245	0.089	45
95	5130	0.073	45
95	5177	0.074	47
95	5184	0.074	45
95	5331	0.075	47
95	5804	0.082	45
95	5847	0.083	47
95	5916	0.084	45
95	5982	0.085	47
95	6248	0.089	45
95	6317	0.09	47
96	382	0.002	0
96	385	0.002	0
96	388	0.002	0
96	391	0.002	0
96	394	0.002	0
96	397	0.002	0
96	400	0.002	0
96	403	0.002	0
96	406	0.002	0
96	409	0.002	0
96	412	0.002	0
96	415	0.002	0
96	418	0.002	0
96	421	0.002	0
96	424	0.002	0
96	427	0.002	0
96	430	0.002	0
96	433	0.002	0
96	436	0.002	0
96	439	0.002	0
96	739	0.008	0
96	742	0.008	0
96	745	0.008	0
96	748	0.008	0
96	751	0.008	0
96	754	0.008	0
96	757	0.008	0
96	760	0.008	0
96	763	0.008	0
96	766	0.008	0
96	1022	0.014	0
96	1025	0.014	0
96	1028	0.014	0
96	1031	0.014	0
96	1034	0.014	0
96	1037	0.014	0
96	1040	0.014	0
96	1043	0.014	0
96	1046	0.014	0
96	1049	0.014	0
96	1122	0.016	0
96	1151	0.017	0
96	1154	0.017	0
96	1317	0.02	0
96	1320	0.02	0
96	1323	0.02	0
96	1326	0.02	0
96	1329	0.02	0
96	1332	0.02	0
96	1335	0.02	0
96	1338	0.02	0
96	1341	0.02	0
96	1344	0.02	0
96	1388	0.021	0
96	1426	0.022	0
96	1429	0.022	0
96	1616	0.025	0
96	1654	0.026	0
96	1657	0.026	0
96	1660	0.026	0
96	1663	0.026	0
96	1666	0.026	0
96	1669	0.026	0
96	1672	0.026	0
96	1675	0.026	0
96	1678	0.026	0
96	1681	0.026	0
96	1693	0.026	0
96	1731	0.027	0
96	1734	0.027	0
96	1772	0.028	0
96	1813	0.029	0
96	1874	0.03	0
96	1965	0.031	0
96	1997	0.032	0
96	2000	0.032	0
96	2003	0.032	0
96	2006	0.032	0
96	2009	0.032	0
96	2012	0.032	0
96	2015	0.032	0
96	2018	0.032	0
96	2021	0.032	0
96	2024	0.032	0
96	2033	0.032	0
96	2036	0.032	0
96	2083	0.033	0
96	2127	0.034	0
96	2183	0.035	0
96	2189	0.035	0
96	2258	0.036	0
96	2352	0.037	0
96	2355	0.037	0
96	2397	0.038	0
96	2400	0.038	0
96	2403	0.038	0
96	2406	0.038	0
96	2409	0.038	0
96	2412	0.038	0
96	2415	0.038	0
96	2418	0.038	0
96	2421	0.038	0
96	2424	0.038	0
96	2433	0.038	0
96	2436	0.038	0
96	2439	0.038	0
96	2486	0.039	0
96	2530	0.04	0
96	2539	0.04	0
96	2588	0.041	0
96	2591	0.041	0
96	2655	0.042	0
96	2658	0.042	0
96	2750	0.043	0
96	2753	0.043	0
96	2756	0.043	0
96	2791	0.044	0
96	2794	0.044	0
96	2797	0.044	0
96	2800	0.044	0
96	2803	0.044	0
96	2806	0.044	0
96	2809	0.044	0
96	2812	0.044	0
96	2815	0.044	0
96	2818	0.044	0
96	2833	0.044	0
96	2877	0.045	0
96	2886	0.045	0
96	2935	0.046	0
96	2938	0.046	0
96	2982	0.047	0
96	2985	0.047	0
96	3056	0.048	0
96	3059	0.048	0
96	3062	0.048	0
96	3171	0.049	0
96	3209	0.05	0
96	3212	0.05	0
96	3215	0.05	0
96	3218	0.05	0
96	3221	0.05	0
96	3224	0.05	0
96	3227	0.05	0
96	3230	0.05	0
96	3233	0.05	0
96	3236	0.05	0
96	3248	0.05	0
96	3260	0.05	0
96	3312	0.051	0
96	3315	0.051	0
96	3318	0.051	0
96	3371	0.052	0
96	3374	0.052	0
96	3377	0.052	0
96	3443	0.053	0
96	3446	0.053	0
96	3449	0.053	0
96	3507	0.054	0
96	3531	0.054	0
96	3631	0.055	0
96	3646	0.055	0
96	3649	0.055	0
96	3681	0.056	0
96	3684	0.056	0
96	3687	0.056	0
96	3690	0.056	0
96	3693	0.056	0
96	3696	0.056	0
96	3699	0.056	0
96	3702	0.056	0
96	3705	0.056	0
96	3708	0.056	0
96	3734	0.056	0
96	3737	0.056	0
96	3740	0.056	0
96	3743	0.056	0
96	3836	0.057	0
96	3839	0.057	0
96	3842	0.057	0
96	3845	0.057	0
96	3859	0.057	0
96	3861	0.057	0
96	3972	0.058	0
96	3977	0.058	0
96	3980	0.058	0
96	3983	0.058	0
96	3995	0.058	0
96	3997	0.058	0
96	3999	0.058	0
96	4001	0.058	0
96	4031	0.059	0
96	4046	0.059	0
96	4058	0.059	0
96	4060	0.059	0
96	4062	0.059	0
96	4113	0.06	0
96	4116	0.06	0
96	4121	0.06	0
96	4124	0.06	0
96	4130	0.06	0
96	4136	0.06	0
96	4138	0.06	0
96	4140	0.06	0
96	4195	0.061	0
96	4198	0.061	0
96	4211	0.061	0
96	4217	0.061	0
96	4259	0.062	0
96	4262	0.062	0
96	4265	0.062	0
96	4274	0.062	0
96	4277	0.062	0
96	4280	0.062	0
96	4283	0.062	0
96	4286	0.062	0
96	4289	0.062	0
96	4306	0.062	0
96	4317	0.062	0
96	4324	0.062	0
96	4326	0.062	0
96	4331	0.062	0
96	4427	0.063	0
96	4430	0.063	0
96	4434	0.063	0
96	4488	0.064	0
96	4490	0.064	0
96	4541	0.065	0
96	4543	0.065	0
96	4545	0.065	0
96	4548	0.065	0
96	4630	0.066	0
96	4698	0.067	0
96	4711	0.067	0
96	4713	0.067	0
96	4752	0.068	0
96	4755	0.068	0
96	4758	0.068	0
96	4767	0.068	0
96	4770	0.068	0
96	4773	0.068	0
96	4776	0.068	0
96	4779	0.068	0
96	4782	0.068	0
96	4799	0.068	0
96	4821	0.068	0
96	4969	0.07	0
96	4971	0.07	0
96	5029	0.071	0
96	5031	0.071	0
96	5091	0.072	0
96	5093	0.072	0
96	5160	0.073	0
96	5165	0.073	0
96	5212	0.074	0
96	5215	0.074	0
96	5218	0.074	0
96	5227	0.074	0
96	5230	0.074	0
96	5233	0.074	0
96	5236	0.074	0
96	5239	0.074	0
96	5242	0.074	0
96	5259	0.074	0
96	5275	0.074	0
96	5365	0.075	0
96	5368	0.075	0
96	5377	0.075	0
96	5431	0.076	0
96	5434	0.076	0
96	5474	0.077	0
96	5476	0.077	0
96	5540	0.078	0
96	5547	0.078	0
96	5604	0.079	0
96	5615	0.079	0
96	5617	0.079	0
96	5648	0.08	0
96	5651	0.08	0
96	5654	0.08	0
96	5663	0.08	0
96	5666	0.08	0
96	5669	0.08	0
96	5672	0.08	0
96	5675	0.08	0
96	5678	0.08	0
96	5695	0.08	0
96	5698	0.08	0
96	5700	0.08	0
96	5703	0.08	0
96	5780	0.081	0
96	5788	0.081	0
96	5791	0.081	0
96	5836	0.082	0
96	5838	0.082	0
96	5883	0.083	0
96	5956	0.084	0
96	6014	0.085	0
96	6017	0.085	0
96	6053	0.086	0
96	6056	0.086	0
96	6059	0.086	0
96	6068	0.086	0
96	6071	0.086	0
96	6074	0.086	0
96	6077	0.086	0
96	6080	0.086	0
96	6083	0.086	0
96	6100	0.086	0
96	6105	0.086	0
96	6113	0.086	0
96	6116	0.086	0
96	6194	0.087	0
96	6196	0.087	0
96	6230	0.088	0
96	6235	0.088	0
96	6291	0.089	0
96	6347	0.09	0
96	6349	0.09	0
96	6352	0.09	0
96	6416	0.091	0
96	6419	0.091	0
96	6456	0.092	0
96	6459	0.092	0
96	6462	0.092	0
96	6471	0.092	0
96	6474	0.092	0
96	6477	0.092	0
96	6480	0.092	0
96	6483	0.092	0
96	6486	0.092	0
96	6503	0.092	0
96	6509	0.092	0
96	6511	0.092	0
96	6591	0.093	0
96	6637	0.094	0
96	6666	0.095	0
96	6668	0.095	0
96	6671	0.095	0
96	6733	0.096	0
96	6736	0.096	0
96	6787	0.097	0
96	6789	0.097	0
96	6823	0.098	0
96	6826	0.098	0
96	6829	0.098	0
96	6838	0.098	0
96	6841	0.098	0
96	6844	0.098	0
96	6847	0.098	0
96	6850	0.098	0
96	6853	0.098	0
96	6870	0.098	0
96	6876	0.098	0
96	6953	0.099	0
96	6982	0.1	0
96	6985	0.1	0
96	7027	0.101	0
96	7030	0.101	0
96	7081	0.102	0
96	7083	0.102	0
96	7140	0.103	0
96	7168	0.104	0
96	7171	0.104	0
96	7174	0.104	0
96	7183	0.104	0
96	7186	0.104	0
96	7189	0.104	0
96	7192	0.104	0
96	7195	0.104	0
96	7198	0.104	0
96	7215	0.104	0
96	7227	0.104	0
96	7296	0.105	0
96	7299	0.105	0
96	7341	0.106	0
96	7344	0.106	0
96	7375	0.107	0
96	7377	0.107	0
96	7434	0.108	0
96	7491	0.109	0
96	7520	0.11	0
96	7523	0.11	0
96	7526	0.11	0
96	7535	0.11	0
96	7538	0.11	0
96	7541	0.11	0
96	7544	0.11	0
96	7547	0.11	0
96	7550	0.11	0
96	7567	0.11	0
96	7570	0.11	0
96	7573	0.11	0
96	7615	0.111	0
96	7618	0.111	0
96	7649	0.112	0
96	7651	0.112	0
96	7688	0.113	0
96	7745	0.114	0
96	7794	0.115	0
96	7797	0.115	0
96	7833	0.116	0
96	7836	0.116	0
96	7839	0.116	0
96	7848	0.116	0
96	7851	0.116	0
96	7854	0.116	0
96	7857	0.116	0
96	7860	0.116	0
96	7863	0.116	0
96	7880	0.116	0
96	7889	0.116	0
96	7892	0.116	0
96	7923	0.117	0
96	7925	0.117	0
96	7962	0.118	0
96	7999	0.119	0
96	8048	0.12	0
96	8051	0.12	0
96	8113	0.121	0
96	8116	0.121	0
96	8144	0.122	0
96	8147	0.122	0
96	8150	0.122	0
96	8159	0.122	0
96	8162	0.122	0
96	8165	0.122	0
96	8168	0.122	0
96	8171	0.122	0
96	8174	0.122	0
96	8191	0.122	0
96	8197	0.122	0
96	8199	0.122	0
96	8236	0.123	0
96	8273	0.124	0
96	8302	0.125	0
96	8305	0.125	0
96	8367	0.126	0
96	8370	0.126	0
96	8421	0.127	0
96	8423	0.127	0
96	8457	0.128	0
96	8460	0.128	0
96	8463	0.128	0
96	8472	0.128	0
96	8475	0.128	0
96	8478	0.128	0
96	8481	0.128	0
96	8484	0.128	0
96	8487	0.128	0
96	8504	0.128	0
96	8510	0.128	0
96	8547	0.129	0
96	8576	0.13	0
96	8579	0.13	0
96	8621	0.131	0
96	8624	0.131	0
96	8675	0.132	0
96	8677	0.132	0
96	8734	0.133	0
96	8762	0.134	0
96	8765	0.134	0
96	8768	0.134	0
96	8777	0.134	0
96	8780	0.134	0
96	8783	0.134	0
96	8786	0.134	0
96	8789	0.134	0
96	8792	0.134	0
96	8809	0.134	0
96	8821	0.134	0
96	8850	0.135	0
96	8853	0.135	0
96	8895	0.136	0
96	8898	0.136	0
96	8929	0.137	0
96	8931	0.137	0
96	8988	0.138	0
96	9045	0.139	0
96	9074	0.14	0
96	9077	0.14	0
96	9080	0.14	0
96	9089	0.14	0
96	9092	0.14	0
96	9095	0.14	0
96	9098	0.14	0
96	9101	0.14	0
96	9104	0.14	0
96	9121	0.14	0
96	9124	0.14	0
96	9127	0.14	0
96	9169	0.141	0
96	9172	0.141	0
96	9203	0.142	0
96	9205	0.142	0
96	9242	0.143	0
96	9299	0.144	0
96	9348	0.145	0
96	9351	0.145	0
96	9387	0.146	0
96	9390	0.146	0
96	9393	0.146	0
96	9402	0.146	0
96	9405	0.146	0
96	9408	0.146	0
96	9411	0.146	0
96	9414	0.146	0
96	9417	0.146	0
96	9434	0.146	0
96	9443	0.146	0
96	9446	0.146	0
96	9477	0.147	0
96	9479	0.147	0
96	9516	0.148	0
96	9553	0.149	0
96	9602	0.15	0
96	9605	0.15	0
96	9667	0.151	0
96	9670	0.151	0
96	9698	0.152	0
96	9701	0.152	0
96	9704	0.152	0
96	9713	0.152	0
96	9716	0.152	0
96	9719	0.152	0
96	9722	0.152	0
96	9725	0.152	0
96	9728	0.152	0
96	9745	0.152	0
96	9751	0.152	0
96	9753	0.152	0
96	9790	0.153	0
96	9827	0.154	0
96	9856	0.155	0
96	9859	0.155	0
96	9921	0.156	0
96	9924	0.156	0
96	9975	0.157	0
96	9977	0.157	0
96	10011	0.158	0
96	10014	0.158	0
96	10017	0.158	0
96	10026	0.158	0
96	10029	0.158	0
96	10032	0.158	0
96	10035	0.158	0
96	10038	0.158	0
96	10041	0.158	0
96	10058	0.158	0
96	10064	0.158	0
96	10101	0.159	0
96	10130	0.16	0
96	10133	0.16	0
96	10175	0.161	0
96	10178	0.161	0
96	10229	0.162	0
96	10231	0.162	0
96	10288	0.163	0
96	10316	0.164	0
96	10319	0.164	0
96	10322	0.164	0
96	10331	0.164	0
96	10334	0.164	0
96	10337	0.164	0
96	10340	0.164	0
96	10343	0.164	0
96	10346	0.164	0
96	10363	0.164	0
96	10375	0.164	0
96	10404	0.165	0
96	10407	0.165	0
96	10449	0.166	0
96	10452	0.166	0
96	10483	0.167	0
96	10485	0.167	0
96	10542	0.168	0
96	10599	0.169	0
96	10628	0.17	0
96	10631	0.17	0
96	10634	0.17	0
96	10643	0.17	0
96	10646	0.17	0
96	10649	0.17	0
96	10652	0.17	0
96	10655	0.17	0
96	10658	0.17	0
96	10675	0.17	0
96	10678	0.17	0
96	10681	0.17	0
96	10723	0.171	0
96	10726	0.171	0
96	10757	0.172	0
96	10759	0.172	0
96	10796	0.173	0
96	10853	0.174	0
96	10902	0.175	0
96	10905	0.175	0
96	10941	0.176	0
96	10944	0.176	0
96	10947	0.176	0
96	10956	0.176	0
96	10959	0.176	0
96	10962	0.176	0
96	10965	0.176	0
96	10968	0.176	0
96	10971	0.176	0
96	10988	0.176	0
96	10997	0.176	0
96	11000	0.176	0
96	11031	0.177	0
96	11033	0.177	0
96	11070	0.178	0
96	11107	0.179	0
96	11156	0.18	0
96	11159	0.18	0
96	11221	0.181	0
96	11224	0.181	0
96	11252	0.182	0
96	11255	0.182	0
96	11258	0.182	0
96	11267	0.182	0
96	11270	0.182	0
96	11273	0.182	0
96	11276	0.182	0
96	11279	0.182	0
96	11282	0.182	0
96	11299	0.182	0
96	11305	0.182	0
96	11307	0.182	0
96	11344	0.183	0
96	11381	0.184	0
96	11410	0.185	0
96	11413	0.185	0
96	11475	0.186	0
96	11478	0.186	0
96	11529	0.187	0
96	11531	0.187	0
96	11565	0.188	0
96	11568	0.188	0
96	11571	0.188	0
96	11580	0.188	0
96	11583	0.188	0
96	11586	0.188	0
96	11589	0.188	0
96	11592	0.188	0
96	11595	0.188	0
96	11612	0.188	0
96	11618	0.188	0
96	11655	0.189	0
96	11684	0.19	0
96	11687	0.19	0
96	11729	0.191	0
96	11732	0.191	0
96	11783	0.192	0
96	11785	0.192	0
96	11842	0.193	0
96	11870	0.194	0
96	11873	0.194	0
96	11876	0.194	0
96	11885	0.194	0
96	11888	0.194	0
96	11891	0.194	0
96	11894	0.194	0
96	11897	0.194	0
96	11900	0.194	0
96	11917	0.194	0
96	11929	0.194	0
96	11958	0.195	0
96	11961	0.195	0
96	12003	0.196	0
96	12006	0.196	0
96	12037	0.197	0
96	12039	0.197	0
96	12096	0.198	0
96	12153	0.199	0
96	12182	0.2	0
96	12185	0.2	0
96	12188	0.2	0
96	12197	0.2	0
96	12200	0.2	0
96	12203	0.2	0
96	12206	0.2	0
96	12209	0.2	0
96	12212	0.2	0
96	12229	0.2	0
96	12232	0.2	0
96	12235	0.2	0
96	12277	0.201	0
96	12280	0.201	0
96	12311	0.202	0
96	12313	0.202	0
96	12350	0.203	0
96	12407	0.204	0
96	12456	0.205	0
96	12459	0.205	0
96	12495	0.206	0
96	12498	0.206	0
96	12501	0.206	0
96	12510	0.206	0
96	12513	0.206	0
96	12516	0.206	0
96	12519	0.206	0
96	12522	0.206	0
96	12525	0.206	0
96	12542	0.206	0
96	12551	0.206	0
96	12554	0.206	0
96	12585	0.207	0
96	12587	0.207	0
96	13039	0.208	0
96	13076	0.209	0
96	13125	0.21	0
96	13128	0.21	0
96	13190	0.211	0
96	13193	0.211	0
96	13221	0.212	0
96	13224	0.212	0
96	13227	0.212	0
96	13236	0.212	0
96	13239	0.212	0
96	13242	0.212	0
96	13245	0.212	0
96	13248	0.212	0
96	13251	0.212	0
96	13268	0.212	0
96	13274	0.212	0
96	13276	0.212	0
96	13313	0.213	0
96	13350	0.214	0
96	13379	0.215	0
96	13382	0.215	0
96	13444	0.216	0
96	13447	0.216	0
96	13498	0.217	0
96	13500	0.217	0
96	13534	0.218	0
96	13537	0.218	0
96	13540	0.218	0
96	13549	0.218	0
96	13552	0.218	0
96	13555	0.218	0
96	13558	0.218	0
96	13561	0.218	0
96	13564	0.218	0
96	13581	0.218	0
96	13587	0.218	0
96	13624	0.219	0
96	13653	0.22	0
96	13656	0.22	0
96	13698	0.221	0
96	13701	0.221	0
96	13752	0.222	0
96	13754	0.222	0
96	13811	0.223	0
96	13839	0.224	0
96	13842	0.224	0
96	13845	0.224	0
96	13854	0.224	0
96	13857	0.224	0
96	13860	0.224	0
96	13863	0.224	0
96	13866	0.224	0
96	13869	0.224	0
96	13886	0.224	0
96	13898	0.224	0
96	13927	0.225	0
96	13930	0.225	0
96	13972	0.226	0
96	13975	0.226	0
96	14006	0.227	0
96	14008	0.227	0
96	14065	0.228	0
96	14122	0.229	0
96	14151	0.23	0
96	14154	0.23	0
96	14157	0.23	0
96	14166	0.23	0
96	14169	0.23	0
96	14172	0.23	0
96	14175	0.23	0
96	14178	0.23	0
96	14181	0.23	0
96	14198	0.23	0
96	14201	0.23	0
96	14204	0.23	0
96	14246	0.231	0
96	14249	0.231	0
96	14280	0.232	0
96	14282	0.232	0
96	14319	0.233	0
96	14376	0.234	0
96	14425	0.235	0
96	14428	0.235	0
96	14464	0.236	0
96	14467	0.236	0
96	14470	0.236	0
96	14479	0.236	0
96	14482	0.236	0
96	14485	0.236	0
96	14488	0.236	0
96	14491	0.236	0
96	14494	0.236	0
96	14511	0.236	0
96	14520	0.236	0
96	14523	0.236	0
96	14554	0.237	0
96	14556	0.237	0
96	14593	0.238	0
96	14630	0.239	0
96	14679	0.24	0
96	14682	0.24	0
96	14744	0.241	0
96	14747	0.241	0
96	14775	0.242	0
96	14778	0.242	0
96	14781	0.242	0
96	14790	0.242	0
96	14793	0.242	0
96	14796	0.242	0
96	14799	0.242	0
96	14802	0.242	0
96	14805	0.242	0
96	14822	0.242	0
96	14828	0.242	0
96	14830	0.242	0
96	14867	0.243	0
96	14904	0.244	0
96	14933	0.245	0
96	14936	0.245	0
96	14998	0.246	0
96	15001	0.246	0
96	15052	0.247	0
96	15054	0.247	0
96	15088	0.248	0
96	15091	0.248	0
96	15094	0.248	0
96	15103	0.248	0
96	15106	0.248	0
96	15109	0.248	0
96	15112	0.248	0
96	15115	0.248	0
96	15118	0.248	0
96	15135	0.248	0
96	15141	0.248	0
96	15178	0.249	0
96	15207	0.25	0
96	15210	0.25	0
96	15252	0.251	0
96	15255	0.251	0
96	15306	0.252	0
96	15308	0.252	0
96	15365	0.253	0
96	15393	0.254	0
96	15396	0.254	0
96	15399	0.254	0
96	15408	0.254	0
96	15411	0.254	0
96	15414	0.254	0
96	15417	0.254	0
96	15420	0.254	0
96	15423	0.254	0
96	15440	0.254	0
96	15452	0.254	0
96	15481	0.255	0
96	15484	0.255	0
96	15526	0.256	0
96	15529	0.256	0
96	15560	0.257	0
96	15562	0.257	0
96	16034	0.258	0
96	16091	0.259	0
96	16120	0.26	0
96	16123	0.26	0
96	16126	0.26	0
96	16135	0.26	0
96	16138	0.26	0
96	16141	0.26	0
96	16144	0.26	0
96	16147	0.26	0
96	16150	0.26	0
96	16167	0.26	0
96	16170	0.26	0
96	16173	0.26	0
96	16215	0.261	0
96	16218	0.261	0
96	16249	0.262	0
96	16251	0.262	0
96	16288	0.263	0
96	16345	0.264	0
96	16394	0.265	0
96	16397	0.265	0
96	16433	0.266	0
96	16436	0.266	0
96	16439	0.266	0
96	16448	0.266	0
96	16451	0.266	0
96	16454	0.266	0
96	16457	0.266	0
96	16460	0.266	0
96	16463	0.266	0
96	16480	0.266	0
96	16489	0.266	0
96	16492	0.266	0
96	16523	0.267	0
96	16525	0.267	0
96	16562	0.268	0
96	16599	0.269	0
96	16648	0.27	0
96	16651	0.27	0
96	16713	0.271	0
96	16716	0.271	0
96	16744	0.272	0
96	16747	0.272	0
96	16750	0.272	0
96	16759	0.272	0
96	16762	0.272	0
96	16765	0.272	0
96	16768	0.272	0
96	16771	0.272	0
96	16774	0.272	0
96	16791	0.272	0
96	16797	0.272	0
96	16799	0.272	0
96	16836	0.273	0
96	16873	0.274	0
96	16902	0.275	0
96	16905	0.275	0
96	16967	0.276	0
96	16970	0.276	0
96	17021	0.277	0
96	17023	0.277	0
96	17057	0.278	0
96	17060	0.278	0
96	17063	0.278	0
96	17072	0.278	0
96	17075	0.278	0
96	17078	0.278	0
96	17081	0.278	0
96	17084	0.278	0
96	17087	0.278	0
96	17104	0.278	0
96	17110	0.278	0
96	17147	0.279	0
96	17176	0.28	0
96	17179	0.28	0
96	17221	0.281	0
96	17224	0.281	0
96	17275	0.282	0
96	17277	0.282	0
96	17334	0.283	0
96	17362	0.284	0
96	17365	0.284	0
96	17368	0.284	0
96	17377	0.284	0
96	17380	0.284	0
96	17383	0.284	0
96	17386	0.284	0
96	17389	0.284	0
96	17392	0.284	0
96	17409	0.284	0
96	17421	0.284	0
96	17450	0.285	0
96	17453	0.285	0
96	17495	0.286	0
96	17498	0.286	0
96	17529	0.287	0
96	17531	0.287	0
96	17588	0.288	0
96	17645	0.289	0
96	17674	0.29	0
96	17677	0.29	0
96	17680	0.29	0
96	17689	0.29	0
96	17692	0.29	0
96	17695	0.29	0
96	17698	0.29	0
96	17701	0.29	0
96	17704	0.29	0
96	17721	0.29	0
96	17724	0.29	0
96	17727	0.29	0
96	17769	0.291	0
96	17772	0.291	0
96	17803	0.292	0
96	17805	0.292	0
96	17842	0.293	0
96	17899	0.294	0
96	17948	0.295	0
96	17951	0.295	0
96	17987	0.296	0
96	17990	0.296	0
96	17993	0.296	0
96	18002	0.296	0
96	18005	0.296	0
96	18008	0.296	0
96	18011	0.296	0
96	18014	0.296	0
96	18017	0.296	0
96	18034	0.296	0
96	18043	0.296	0
96	18046	0.296	0
96	18077	0.297	0
96	18079	0.297	0
96	18116	0.298	0
96	18153	0.299	0
96	18202	0.3	0
96	18205	0.3	0
96	18267	0.301	0
96	18270	0.301	0
96	18298	0.302	0
96	18301	0.302	0
96	18304	0.302	0
96	18313	0.302	0
96	18316	0.302	0
96	18319	0.302	0
96	18322	0.302	0
96	18325	0.302	0
96	18328	0.302	0
96	18345	0.302	0
96	18351	0.302	0
96	18353	0.302	0
96	18390	0.303	0
96	18427	0.304	0
96	18456	0.305	0
96	18459	0.305	0
96	18521	0.306	0
96	18524	0.306	0
96	18575	0.307	0
96	18577	0.307	0
96	18611	0.308	0
96	18614	0.308	0
96	18617	0.308	0
96	18626	0.308	0
96	18629	0.308	0
96	18632	0.308	0
96	18635	0.308	0
96	18638	0.308	0
96	18641	0.308	0
96	18658	0.308	0
96	18664	0.308	0
96	18701	0.309	0
96	18730	0.31	0
96	18733	0.31	0
96	18775	0.311	0
96	18778	0.311	0
96	18829	0.312	0
96	18831	0.312	0
96	18888	0.313	0
96	18916	0.314	0
96	18919	0.314	0
96	18922	0.314	0
96	18931	0.314	0
96	18934	0.314	0
96	18937	0.314	0
96	18940	0.314	0
96	18943	0.314	0
96	18946	0.314	0
96	18963	0.314	0
96	18975	0.314	0
96	19004	0.315	0
96	19007	0.315	0
96	19049	0.316	0
96	19052	0.316	0
96	19083	0.317	0
96	19085	0.317	0
96	19142	0.318	0
96	19199	0.319	0
96	19228	0.32	0
96	19231	0.32	0
96	19234	0.32	0
96	19243	0.32	0
96	19246	0.32	0
96	19249	0.32	0
96	19252	0.32	0
96	19255	0.32	0
96	19258	0.32	0
96	19275	0.32	0
96	19278	0.32	0
96	19281	0.32	0
96	19323	0.321	0
96	19326	0.321	0
96	19357	0.322	0
96	19359	0.322	0
96	19396	0.323	0
96	19453	0.324	0
96	19502	0.325	0
96	19505	0.325	0
96	19541	0.326	0
96	19544	0.326	0
96	19547	0.326	0
96	19556	0.326	0
96	19559	0.326	0
96	19562	0.326	0
96	19565	0.326	0
96	19568	0.326	0
96	19571	0.326	0
96	19588	0.326	0
96	19597	0.326	0
96	19600	0.326	0
96	19631	0.327	0
96	19633	0.327	0
96	19670	0.328	0
96	19707	0.329	0
96	19756	0.33	0
96	19759	0.33	0
96	19821	0.331	0
96	19824	0.331	0
96	19852	0.332	0
96	19855	0.332	0
96	19858	0.332	0
96	19867	0.332	0
96	19870	0.332	0
96	19873	0.332	0
96	19876	0.332	0
96	19879	0.332	0
96	19882	0.332	0
96	19899	0.332	0
96	19905	0.332	0
96	19907	0.332	0
96	19944	0.333	0
96	19981	0.334	0
96	20010	0.335	0
96	20013	0.335	0
96	20075	0.336	0
96	20078	0.336	0
96	20129	0.337	0
96	20131	0.337	0
96	20165	0.338	0
96	20168	0.338	0
96	20171	0.338	0
96	20180	0.338	0
96	20183	0.338	0
96	20186	0.338	0
96	20189	0.338	0
96	20192	0.338	0
96	20195	0.338	0
96	20212	0.338	0
96	20218	0.338	0
96	20255	0.339	0
96	20284	0.34	0
96	20287	0.34	0
96	20329	0.341	0
96	20332	0.341	0
96	20383	0.342	0
96	20385	0.342	0
96	20442	0.343	0
96	20470	0.344	0
96	20473	0.344	0
96	20476	0.344	0
96	20485	0.344	0
96	20488	0.344	0
96	20491	0.344	0
96	20494	0.344	0
96	20497	0.344	0
96	20500	0.344	0
96	20517	0.344	0
96	20529	0.344	0
96	20558	0.345	0
96	20561	0.345	0
96	20603	0.346	0
96	20606	0.346	0
96	20637	0.347	0
96	20639	0.347	0
96	20696	0.348	0
96	20753	0.349	0
96	20782	0.35	0
96	20785	0.35	0
96	20788	0.35	0
96	20797	0.35	0
96	20800	0.35	0
96	20803	0.35	0
96	20806	0.35	0
96	20809	0.35	0
96	20812	0.35	0
96	20829	0.35	0
96	20832	0.35	0
96	20835	0.35	0
96	20877	0.351	0
96	20880	0.351	0
96	20911	0.352	0
96	20913	0.352	0
96	20950	0.353	0
96	21007	0.354	0
96	21056	0.355	0
96	21059	0.355	0
96	21095	0.356	0
96	21098	0.356	0
96	21101	0.356	0
96	21110	0.356	0
96	21113	0.356	0
96	21116	0.356	0
96	21119	0.356	0
96	21122	0.356	0
96	21125	0.356	0
96	21142	0.356	0
96	21151	0.356	0
96	21154	0.356	0
96	21185	0.357	0
96	21187	0.357	0
96	21224	0.358	0
96	21261	0.359	0
96	21310	0.36	0
96	21313	0.36	0
96	21375	0.361	0
96	21378	0.361	0
96	21406	0.362	0
96	21409	0.362	0
96	21412	0.362	0
96	21421	0.362	0
96	21424	0.362	0
96	21427	0.362	0
96	21430	0.362	0
96	21433	0.362	0
96	21436	0.362	0
96	21453	0.362	0
96	21459	0.362	0
96	21461	0.362	0
96	21498	0.363	0
96	21535	0.364	0
96	21564	0.365	0
96	21567	0.365	0
96	21629	0.366	0
96	21632	0.366	0
96	21683	0.367	0
96	21685	0.367	0
96	21719	0.368	0
96	21722	0.368	0
96	21725	0.368	0
96	21734	0.368	0
96	21737	0.368	0
96	21740	0.368	0
96	21743	0.368	0
96	21746	0.368	0
96	21749	0.368	0
96	21766	0.368	0
96	21772	0.368	0
96	21809	0.369	0
96	21838	0.37	0
96	21841	0.37	0
96	21883	0.371	0
96	21886	0.371	0
96	21937	0.372	0
96	21939	0.372	0
96	21996	0.373	0
96	22024	0.374	0
96	22027	0.374	0
96	22030	0.374	0
96	22039	0.374	0
96	22042	0.374	0
96	22045	0.374	0
96	22048	0.374	0
96	22051	0.374	0
96	22054	0.374	0
96	22071	0.374	0
96	22083	0.374	0
96	22112	0.375	0
96	22115	0.375	0
96	22157	0.376	0
96	22160	0.376	0
96	22191	0.377	0
96	22193	0.377	0
96	22250	0.378	0
96	22307	0.379	0
96	22336	0.38	0
96	22339	0.38	0
96	22342	0.38	0
96	22351	0.38	0
96	22354	0.38	0
96	22357	0.38	0
96	22360	0.38	0
96	22363	0.38	0
96	22366	0.38	0
96	22383	0.38	0
96	22386	0.38	0
96	22389	0.38	0
96	22431	0.381	0
96	22434	0.381	0
96	22465	0.382	0
96	22467	0.382	0
96	22504	0.383	0
96	22561	0.384	0
96	22610	0.385	0
96	22613	0.385	0
96	22649	0.386	0
96	22652	0.386	0
96	22655	0.386	0
96	22664	0.386	0
96	22667	0.386	0
96	22670	0.386	0
96	22673	0.386	0
96	22676	0.386	0
96	22679	0.386	0
96	22696	0.386	0
96	22705	0.386	0
96	22708	0.386	0
96	22739	0.387	0
96	22741	0.387	0
96	22778	0.388	0
96	22815	0.389	0
96	22864	0.39	0
96	22867	0.39	0
96	22929	0.391	0
96	22932	0.391	0
96	22960	0.392	0
96	22963	0.392	0
96	22966	0.392	0
96	22975	0.392	0
96	22978	0.392	0
96	22981	0.392	0
96	22984	0.392	0
96	22987	0.392	0
96	22990	0.392	0
96	23007	0.392	0
96	23013	0.392	0
96	23015	0.392	0
96	23052	0.393	0
96	23089	0.394	0
96	23118	0.395	0
96	23121	0.395	0
96	23183	0.396	0
96	23186	0.396	0
96	23237	0.397	0
96	23239	0.397	0
96	23273	0.398	0
96	23276	0.398	0
96	23279	0.398	0
96	23288	0.398	0
96	23291	0.398	0
96	23294	0.398	0
96	23297	0.398	0
96	23300	0.398	0
96	23303	0.398	0
96	23320	0.398	0
96	23326	0.398	0
96	23363	0.399	0
96	23392	0.4	0
96	23395	0.4	0
96	23437	0.401	0
96	23440	0.401	0
96	23491	0.402	0
96	23493	0.402	0
96	23550	0.403	0
96	23578	0.404	0
96	23581	0.404	0
96	23584	0.404	0
96	23593	0.404	0
96	23596	0.404	0
96	23599	0.404	0
96	23602	0.404	0
96	23605	0.404	0
96	23608	0.404	0
96	23625	0.404	0
96	23637	0.404	0
96	23666	0.405	0
96	23669	0.405	0
96	23711	0.406	0
96	23714	0.406	0
96	23745	0.407	0
96	23747	0.407	0
96	23812	0.408	0
96	23869	0.409	0
96	23898	0.41	0
96	23901	0.41	0
96	23904	0.41	0
96	23913	0.41	0
96	23916	0.41	0
96	23919	0.41	0
96	23922	0.41	0
96	23925	0.41	0
96	23928	0.41	0
96	23945	0.41	0
96	23948	0.41	0
96	23951	0.41	0
96	23993	0.411	0
96	23996	0.411	0
96	24027	0.412	0
96	24029	0.412	0
96	24066	0.413	0
96	24123	0.414	0
96	24172	0.415	0
96	24175	0.415	0
96	24211	0.416	0
96	24214	0.416	0
96	24217	0.416	0
96	24226	0.416	0
96	24229	0.416	0
96	24232	0.416	0
96	24235	0.416	0
96	24238	0.416	0
96	24241	0.416	0
96	24258	0.416	0
96	24267	0.416	0
96	24270	0.416	0
96	24301	0.417	0
96	24303	0.417	0
96	24340	0.418	0
96	24377	0.419	0
96	24426	0.42	0
96	24429	0.42	0
96	24491	0.421	0
96	24494	0.421	0
96	24522	0.422	0
96	24525	0.422	0
96	24528	0.422	0
96	24537	0.422	0
96	24540	0.422	0
96	24543	0.422	0
96	24546	0.422	0
96	24549	0.422	0
96	24552	0.422	0
96	24569	0.422	0
96	24575	0.422	0
96	24577	0.422	0
96	24614	0.423	0
96	24651	0.424	0
96	24680	0.425	0
96	24683	0.425	0
96	24745	0.426	0
96	24748	0.426	0
96	24799	0.427	0
96	24801	0.427	0
96	24835	0.428	0
96	24838	0.428	0
96	24841	0.428	0
96	24850	0.428	0
96	24853	0.428	0
96	24856	0.428	0
96	24859	0.428	0
96	24862	0.428	0
96	24865	0.428	0
96	24882	0.428	0
96	24888	0.428	0
96	24925	0.429	0
96	24954	0.43	0
96	24957	0.43	0
96	24999	0.431	0
96	25002	0.431	0
96	25053	0.432	0
96	25055	0.432	0
96	25112	0.433	0
96	25140	0.434	0
96	25143	0.434	0
96	25146	0.434	0
96	25155	0.434	0
96	25158	0.434	0
96	25161	0.434	0
96	25164	0.434	0
96	25167	0.434	0
96	25170	0.434	0
96	25187	0.434	0
96	25199	0.434	0
96	25228	0.435	0
96	25231	0.435	0
96	25273	0.436	0
96	25276	0.436	0
96	25307	0.437	0
96	25309	0.437	0
96	25366	0.438	0
96	25423	0.439	0
96	25452	0.44	0
96	25455	0.44	0
96	25458	0.44	0
96	25467	0.44	0
96	25470	0.44	0
96	25473	0.44	0
96	25476	0.44	0
96	25479	0.44	0
96	25482	0.44	0
96	25499	0.44	0
96	25502	0.44	0
96	25505	0.44	0
96	25547	0.441	0
96	25550	0.441	0
96	25581	0.442	0
96	25583	0.442	0
96	25620	0.443	0
96	25677	0.444	0
96	25726	0.445	0
96	25729	0.445	0
96	25765	0.446	0
96	25768	0.446	0
96	25771	0.446	0
96	25780	0.446	0
96	25783	0.446	0
96	25786	0.446	0
96	25789	0.446	0
96	25792	0.446	0
96	25795	0.446	0
96	25812	0.446	0
96	25821	0.446	0
96	25824	0.446	0
96	25855	0.447	0
96	25857	0.447	0
96	25894	0.448	0
96	25931	0.449	0
96	25980	0.45	0
96	25983	0.45	0
96	26045	0.451	0
96	26048	0.451	0
96	26076	0.452	0
96	26079	0.452	0
96	26082	0.452	0
96	26091	0.452	0
96	26094	0.452	0
96	26097	0.452	0
96	26100	0.452	0
96	26103	0.452	0
96	26106	0.452	0
96	26123	0.452	0
96	26129	0.452	0
96	26131	0.452	0
96	26168	0.453	0
96	26205	0.454	0
96	26234	0.455	0
96	26237	0.455	0
96	26299	0.456	0
96	26302	0.456	0
96	26353	0.457	0
96	26355	0.457	0
96	26397	0.458	0
96	26400	0.458	0
96	26403	0.458	0
96	26412	0.458	0
96	26415	0.458	0
96	26418	0.458	0
96	26421	0.458	0
96	26424	0.458	0
96	26427	0.458	0
96	26444	0.458	0
96	26450	0.458	0
96	26487	0.459	0
96	26516	0.46	0
96	26519	0.46	0
96	26561	0.461	0
96	26564	0.461	0
96	26615	0.462	0
96	26617	0.462	0
96	26674	0.463	0
96	26702	0.464	0
96	26705	0.464	0
96	26708	0.464	0
96	26717	0.464	0
96	26720	0.464	0
96	26723	0.464	0
96	26726	0.464	0
96	26729	0.464	0
96	26732	0.464	0
96	26749	0.464	0
96	26761	0.464	0
96	26790	0.465	0
96	26793	0.465	0
96	26835	0.466	0
96	26838	0.466	0
96	26869	0.467	0
96	26871	0.467	0
96	26928	0.468	0
96	26985	0.469	0
96	27014	0.47	0
96	27017	0.47	0
96	27020	0.47	0
96	27029	0.47	0
96	27032	0.47	0
96	27035	0.47	0
96	27038	0.47	0
96	27041	0.47	0
96	27044	0.47	0
96	27061	0.47	0
96	27064	0.47	0
96	27067	0.47	0
96	27109	0.471	0
96	27112	0.471	0
96	27143	0.472	0
96	27145	0.472	0
96	27182	0.473	0
96	27239	0.474	0
96	27288	0.475	0
96	27291	0.475	0
96	27327	0.476	0
96	27330	0.476	0
96	27333	0.476	0
96	27342	0.476	0
96	27345	0.476	0
96	27348	0.476	0
96	27351	0.476	0
96	27354	0.476	0
96	27357	0.476	0
96	27374	0.476	0
96	27383	0.476	0
96	27386	0.476	0
96	27417	0.477	0
96	27419	0.477	0
96	27456	0.478	0
96	27493	0.479	0
96	27542	0.48	0
96	27545	0.48	0
96	27607	0.481	0
96	27610	0.481	0
96	27638	0.482	0
96	27641	0.482	0
96	27644	0.482	0
96	27653	0.482	0
96	27656	0.482	0
96	27659	0.482	0
96	27662	0.482	0
96	27665	0.482	0
96	27668	0.482	0
96	27685	0.482	0
96	27691	0.482	0
96	27693	0.482	0
96	27730	0.483	0
96	27767	0.484	0
96	27796	0.485	0
96	27799	0.485	0
96	27861	0.486	0
96	27864	0.486	0
96	27915	0.487	0
96	27917	0.487	0
96	27951	0.488	0
96	27954	0.488	0
96	27957	0.488	0
96	27966	0.488	0
96	27969	0.488	0
96	27972	0.488	0
96	27975	0.488	0
96	27978	0.488	0
96	27981	0.488	0
[...]
1174	12598	0.2070005104	104
1174	12598	0.2070005104	106
1174	12598	0.2070005104	108
1174	12598	0.2070005104	110
1174	12598	0.2070005104	112
1174	12598	0.2070005104	114
1174	12598	0.2070005104	116
1174	12598	0.2070005104	118
1174	12598	0.2070005104	120
1174	12598	0.2070005104	122
1174	12598	0.2070005104	124
1174	12598	0.2070005104	126
1174	12598	0.2070005104	128
1174	12598	0.2070005104	130
1174	12598	0.2070005104	132
1174	12598	0.2070005104	134
1174	12598	0.2070005104	136
1174	12598	0.2070005104	138
1174	12598	0.2070005104	140
1174	12598	0.2070005104	142
1174	12598	0.2070005104	144
1174	12598	0.2070005104	146
1174	12598	0.2070005104	148
1174	12598	0.2070005104	150
1174	12598	0.2070005104	152
1174	12598	0.2070005104	154
1174	12598	0.2070005104	156
1174	12598	0.2070005104	158
1174	12598	0.2070005104	160
1174	23758	0.4070019656	158
1174	23758	0.4070019656	156
1174	23758	0.4070019656	154
1174	23758	0.4070019656	152
1174	23758	0.4070019656	150
1174	23758	0.4070019656	148
1174	23758	0.4070019656	146
1174	23758	0.4070019656	144
1174	23758	0.4070019656	142
1174	23758	0.4070019656	140
1174	23758	0.4070019656	138
1174	23758	0.4070019656	136
1174	23758	0.4070019656	134
1174	23758	0.4070019656	132
1174	23758	0.4070019656	130
1174	23758	0.4070019656	128
1174	23758	0.4070019656	126
1174	23758	0.4070019656	124
1174	23758	0.4070019656	122
1174	23758	0.4070019656	120
1174	23758	0.4070019656	118
1174	23758	0.4070019656	116
1174	23758	0.4070019656	114
1174	23758	0.4070019656	112
1174	23758	0.4070019656	110
1174	23758	0.4070019656	108
1174	23758	0.4070019656	106
1174	23758	0.4070019656	104
1174	23758	0.4070019656	102
1174	23758	0.4070019656	100
1174	23758	0.4070019656	98
1174	23758	0.4070019656	96
1174	23758	0.4070019656	94
1174	23758	0.4070019656	92
1174	23758	0.4070019656	90
1174	23758	0.4070019656	88
1174	23758	0.4070019656	86
1174	23758	0.4070019656	84
1174	23758	0.4070019656	82
1174	23758	0.4070019656	80
1174	23758	0.4070019656	78
1174	23758	0.4070019656	76
1174	23758	0.4070019656	74
1174	23758	0.4070019656	72
1174	23758	0.4070019656	70
1174	23758	0.4070019656	68
1174	23758	0.4070019656	66
1174	23758	0.4070019656	64
1174	23758	0.4070019656	62
1174	23758	0.4070019656	60
1174	23758	0.4070019656	58
1174	23758	0.4070019656	56
1174	23758	0.4070019656	54
1174	23758	0.4070019656	52
1174	23758	0.4070019656	50
1174	23758	0.4070019656	48
1174	23758	0.4070019656	46
1174	23758	0.4070019656	44
1174	23758	0.4070019656	42
1174	23758	0.4070019656	40
1174	23758	0.4070019656	38
1174	23758	0.4070019656	36
1174	23758	0.4070019656	34
1174	23758	0.4070019656	32
1174	23758	0.4070019656	30
1174	23758	0.4070019656	28
1174	23758	0.4070019656	26
1174	23758	0.4070019656	24
1174	23758	0.4070019656	22
1174	23758	0.4070019656	20
1174	23758	0.4070019656	18
1174	23758	0.4070019656	16
1174	23758	0.4070019656	14
1174	23758	0.4070019656	12
1174	23758	0.4070019656	10
1174	23758	0.4070019656	8
1174	23758	0.4070019656	6
1174	23758	0.4070019656	4
1174	23758	0.4070019656	2
1174	23758	0.4070019656	0
1175	605	0.007	2
1175	659	0.0070001912	0
1175	659	0.0070001912	2
1175	659	0.0070001912	4
1175	659	0.0070001912	6
1175	659	0.0070001912	8
1175	659	0.0070001912	10
1175	659	0.0070001912	12
1175	659	0.0070001912	14
1175	659	0.0070001912	16
1175	659	0.0070001912	18
1175	12598	0.2070005104	16
1175	12598	0.2070005104	14
1175	12598	0.2070005104	12
1175	12598	0.2070005104	10
1175	12598	0.2070005104	8
1175	12598	0.2070005104	6
1175	12598	0.2070005104	4
1175	12598	0.2070005104	2
1175	12598	0.2070005104	0
1175	12598	0.2070005104	2
1175	12598	0.2070005104	4
1175	12598	0.2070005104	6
1175	12598	0.2070005104	8
1175	12598	0.2070005104	10
1175	12598	0.2070005104	12
1175	12598	0.2070005104	14
1175	12598	0.2070005104	16
1175	12598	0.2070005104	18
1175	12598	0.2070005104	20
1175	12598	0.2070005104	22
1175	12598	0.2070005104	24
1175	12598	0.2070005104	26
1175	12598	0.2070005104	28
1175	12598	0.2070005104	30
1175	12598	0.2070005104	32
1175	12598	0.2070005104	34
1175	12598	0.2070005104	36
1175	12598	0.2070005104	38
1175	12598	0.2070005104	40
1175	12598	0.2070005104	42
1175	12598	0.2070005104	44
1175	12598	0.2070005104	46
1175	12598	0.2070005104	48
1175	12598	0.2070005104	50
1175	12598	0.2070005104	52
1175	12598	0.2070005104	54
1175	12598	0.2070005104	56
1175	12598	0.2070005104	58
1175	12598	0.2070005104	60
1175	12598	0.2070005104	62
1175	12598	0.2070005104	64
1175	12598	0.2070005104	66
1175	12598	0.2070005104	68
1175	12598	0.2070005104	70
1175	12598	0.2070005104	72
1175	12598	0.2070005104	74
1175	12598	0.2070005104	76
1175	12598	0.2070005104	78
1175	12598	0.2070005104	80
1175	12598	0.2070005104	82
1175	12598	0.2070005104	84
1175	12598	0.2070005104	86
1175	12598	0.2070005104	88
1175	12598	0.2070005104	90
1175	12598	0.2070005104	92
1175	12598	0.2070005104	94
1175	12598	0.2070005104	96
1175	12598	0.2070005104	98
1175	12598	0.2070005104	100
1175	12598	0.2070005104	102
1175	12598	0.2070005104	104
1175	12598	0.2070005104	106
1175	12598	0.2070005104	108
1175	12598	0.2070005104	110
1175	12598	0.2070005104	112
1175	12598	0.2070005104	114
1175	12598	0.2070005104	116
1175	12598	0.2070005104	118
1175	12598	0.2070005104	120
1175	12598	0.2070005104	122
1175	12598	0.2070005104	124
1175	12598	0.2070005104	126
1175	12598	0.2070005104	128
1175	12598	0.2070005104	130
1175	12598	0.2070005104	132
1175	12598	0.2070005104	134
1175	12598	0.2070005104	136
1175	12598	0.2070005104	138
1175	12598	0.2070005104	140
1175	12598	0.2070005104	142
1175	12598	0.2070005104	144
1175	12598	0.2070005104	146
1175	12598	0.2070005104	148
1175	12598	0.2070005104	150
1175	12598	0.2070005104	152
1175	12598	0.2070005104	154
1175	12598	0.2070005104	156
1175	12598	0.2070005104	158
1175	12598	0.2070005104	160
1175	23758	0.4070019656	158
1175	23758	0.4070019656	156
1175	23758	0.4070019656	154
1175	23758	0.4070019656	152
1175	23758	0.4070019656	150
1175	23758	0.4070019656	148
1175	23758	0.4070019656	146
1175	23758	0.4070019656	144
1175	23758	0.4070019656	142
1175	23758	0.4070019656	140
1175	23758	0.4070019656	138
1175	23758	0.4070019656	136
1175	23758	0.4070019656	134
1175	23758	0.4070019656	132
1175	23758	0.4070019656	130
1175	23758	0.4070019656	128
1175	23758	0.4070019656	126
1175	23758	0.4070019656	124
1175	23758	0.4070019656	122
1175	23758	0.4070019656	120
1175	23758	0.4070019656	118
1175	23758	0.4070019656	116
1175	23758	0.4070019656	114
1175	23758	0.4070019656	112
1175	23758	0.4070019656	110
1175	23758	0.4070019656	108
1175	23758	0.4070019656	106
1175	23758	0.4070019656	104
1175	23758	0.4070019656	102
1175	23758	0.4070019656	100
1175	23758	0.4070019656	98
1175	23758	0.4070019656	96
1175	23758	0.4070019656	94
1175	23758	0.4070019656	92
1175	23758	0.4070019656	90
1175	23758	0.4070019656	88
1175	23758	0.4070019656	86
1175	23758	0.4070019656	84
1175	23758	0.4070019656	82
1175	23758	0.4070019656	80
1175	23758	0.4070019656	78
1175	23758	0.4070019656	76
1175	23758	0.4070019656	74
1175	23758	0.4070019656	72
1175	23758	0.4070019656	70
1175	23758	0.4070019656	68
1175	23758	0.4070019656	66
1175	23758	0.4070019656	64
1175	23758	0.4070019656	62
1175	23758	0.4070019656	60
1175	23758	0.4070019656	58
1175	23758	0.4070019656	56
1175	23758	0.4070019656	54
1175	23758	0.4070019656	52
1175	23758	0.4070019656	50
1175	23758	0.4070019656	48
1175	23758	0.4070019656	46
1175	23758	0.4070019656	44
1175	23758	0.4070019656	42
1175	23758	0.4070019656	40
1175	23758	0.4070019656	38
1175	23758	0.4070019656	36
1175	23758	0.4070019656	34
1175	23758	0.4070019656	32
1175	23758	0.4070019656	30
1175	23758	0.4070019656	28
1175	23758	0.4070019656	26
1175	23758	0.4070019656	24
1175	23758	0.4070019656	22
1175	23758	0.4070019656	20
1175	23758	0.4070019656	18
1175	23758	0.4070019656	16
1175	23758	0.4070019656	14
1175	23758	0.4070019656	12
1175	23758	0.4070019656	10
1175	23758	0.4070019656	8
1175	23758	0.4070019656	6
1175	23758	0.4070019656	4
1175	23758	0.4070019656	2
1175	23758	0.4070019656	0
1178	659	0.0070001912	0
1178	12598	0.2070005104	0
1178	23758	0.4070019656	0
1179	659	0.0070001912	0
1179	12598	0.2070005104	0
1179	23758	0.4070019656	0
1180	659	0.0070001912	0
1180	12598	0.2070005104	0
1180	23758	0.4070019656	0
1181	659	0.0070001912	0
1181	12598	0.2070005104	0
1181	23758	0.4070019656	0
1182	150	0.0000001228	0
1185	659	0.0070001912	2000
1185	12598	0.2070005104	2009
1185	23758	0.4070019656	2089
1187	659	0.0070001912	0
1187	12598	0.2070005104	0
1187	23758	0.4070019656	0
1188	659	0.0070001912	0
1188	12598	0.2070005104	0
1188	23758	0.4070019656	0
1190	235	0.0000006304	3
1192	235	0.0000006304	65535
1193	235	0.0000006304	8940
1194	235	0.0000006304	0.3725
1197	235	0.0000006304	1
1209	163	0.0000003096	0
1217	235	0.0000006304	3
1219	235	0.0000006304	65535
1220	235	0.0000006304	8940
1221	235	0.0000006304	0.3725
1224	235	0.0000006304	1
1236	163	0.0000003096	0
1244	236	0.0000006304	3
1246	236	0.0000006304	65535
1247	236	0.0000006304	8940
1248	236	0.0000006304	0.3725
1251	236	0.0000006304	1
1263	164	0.0000003096	0
1271	236	0.0000006304	3
1273	236	0.0000006304	65535
1274	236	0.0000006304	8940
1275	236	0.0000006304	0.3725
1278	236	0.0000006304	1
1290	164	0.0000003096	0
1300	3877	0.0570001912	0
1300	15573	0.2570005104	0
1300	26366	0.4570019656	0
1301	3781	0.057	1
1301	3781	0.057	0
1301	3782	0.057	1
1301	3783	0.057	2
1301	3784	0.057	3
1301	3785	0.057	4
1301	3786	0.057	5
1301	3787	0.057	6
1301	3788	0.057	7
1301	3789	0.057	8
1301	3790	0.057	9
1301	3877	0.0570001912	8
1301	3877	0.0570001912	7
1301	3877	0.0570001912	6
1301	3877	0.0570001912	5
1301	3877	0.0570001912	4
1301	3877	0.0570001912	3
1301	3877	0.0570001912	2
1301	3877	0.0570001912	1
1301	3877	0.0570001912	0
1301	4362	0.063	1
1301	4363	0.063	2
1301	4364	0.063	3
1301	4365	0.063	4
1301	4366	0.063	5
1301	4367	0.063	6
1301	4368	0.063	7
1301	4369	0.063	8
1301	4370	0.063	9
1301	4371	0.063	10
1301	4852	0.069	11
1301	4853	0.069	12
1301	4854	0.069	13
1301	4855	0.069	14
1301	4856	0.069	15
1301	4857	0.069	16
1301	4858	0.069	17
1301	4859	0.069	18
1301	4860	0.069	19
1301	4861	0.069	20
1301	5310	0.075	21
1301	5311	0.075	22
1301	5312	0.075	23
1301	5313	0.075	24
1301	5314	0.075	25
1301	5315	0.075	26
1301	5316	0.075	27
1301	5317	0.075	28
1301	5318	0.075	29
1301	5319	0.075	30
1301	5741	0.081	31
1301	5742	0.081	32
1301	5743	0.081	33
1301	5744	0.081	34
1301	5745	0.081	35
1301	5746	0.081	36
1301	5747	0.081	37
1301	5748	0.081	38
1301	5749	0.081	39
1301	5750	0.081	40
1301	6147	0.087	41
1301	6148	0.087	42
1301	6149	0.087	43
1301	6150	0.087	44
1301	6151	0.087	45
1301	6152	0.087	46
1301	6153	0.087	47
1301	6154	0.087	48
1301	6155	0.087	49
1301	6156	0.087	50
1301	6545	0.093	51
1301	6546	0.093	52
1301	6547	0.093	53
1301	6548	0.093	54
1301	6549	0.093	55
1301	6550	0.093	56
1301	6551	0.093	57
1301	6552	0.093	58
1301	6553	0.093	59
1301	6554	0.093	60
1301	6907	0.099	61
1301	6908	0.099	62
1301	6909	0.099	63
1301	6910	0.099	64
1301	6911	0.099	65
1301	6912	0.099	66
1301	6913	0.099	67
1301	6914	0.099	68
1301	6915	0.099	69
1301	6916	0.099	70
1301	7259	0.105	71
1301	7260	0.105	72
1301	7261	0.105	73
1301	7262	0.105	74
1301	7263	0.105	75
1301	7264	0.105	76
1301	7265	0.105	77
1301	7266	0.105	78
1301	7267	0.105	79
1301	7268	0.105	80
1301	15573	0.2570005104	79
1301	15573	0.2570005104	78
1301	15573	0.2570005104	77
1301	15573	0.2570005104	76
1301	15573	0.2570005104	75
1301	15573	0.2570005104	74
1301	15573	0.2570005104	73
1301	15573	0.2570005104	72
1301	15573	0.2570005104	71
1301	15573	0.2570005104	70
1301	15573	0.2570005104	69
1301	15573	0.2570005104	68
1301	15573	0.2570005104	67
1301	15573	0.2570005104	66
1301	15573	0.2570005104	65
1301	15573	0.2570005104	64
1301	15573	0.2570005104	63
1301	15573	0.2570005104	62
1301	15573	0.2570005104	61
1301	15573	0.2570005104	60
1301	15573	0.2570005104	59
1301	15573	0.2570005104	58
1301	15573	0.2570005104	57
1301	15573	0.2570005104	56
1301	15573	0.2570005104	55
1301	15573	0.2570005104	54
1301	15573	0.2570005104	53
1301	15573	0.2570005104	52
1301	15573	0.2570005104	51
1301	15573	0.2570005104	50
1301	15573	0.2570005104	49
1301	15573	0.2570005104	48
1301	15573	0.2570005104	47
1301	15573	0.2570005104	46
1301	15573	0.2570005104	45
1301	15573	0.2570005104	44
1301	15573	0.2570005104	43
1301	15573	0.2570005104	42
1301	15573	0.2570005104	41
1301	15573	0.2570005104	40
1301	15573	0.2570005104	39
1301	15573	0.2570005104	38
1301	15573	0.2570005104	37
1301	15573	0.2570005104	36
1301	15573	0.2570005104	35
1301	15573	0.2570005104	34
1301	15573	0.2570005104	33
1301	15573	0.2570005104	32
1301	15573	0.2570005104	31
1301	15573	0.2570005104	30
1301	15573	0.2570005104	29
1301	15573	0.2570005104	28
1301	15573	0.2570005104	27
1301	15573	0.2570005104	26
1301	15573	0.2570005104	25
1301	15573	0.2570005104	24
1301	15573	0.2570005104	23
1301	15573	0.2570005104	22
1301	15573	0.2570005104	21
1301	15573	0.2570005104	20
1301	15573	0.2570005104	19
1301	15573	0.2570005104	18
1301	15573	0.2570005104	17
1301	15573	0.2570005104	16
1301	15573	0.2570005104	15
1301	15573	0.2570005104	14
1301	15573	0.2570005104	13
1301	15573	0.2570005104	12
1301	15573	0.2570005104	11
1301	15573	0.2570005104	10
1301	15573	0.2570005104	9
1301	15573	0.2570005104	8
1301	15573	0.2570005104	7
1301	15573	0.2570005104	6
1301	15573	0.2570005104	5
1301	15573	0.2570005104	4
1301	15573	0.2570005104	3
1301	15573	0.2570005104	2
1301	15573	0.2570005104	1
1301	15573	0.2570005104	0
1304	659	0.0070001912	0
1304	12598	0.2070005104	0
1304	23758	0.4070019656	0
1305	605	0.007	1
1305	605	0.007	0
1305	606	0.007	1
1305	607	0.007	2
1305	608	0.007	3
1305	609	0.007	4
1305	610	0.007	5
1305	611	0.007	6
1305	612	0.007	7
1305	613	0.007	8
1305	614	0.007	9
1305	659	0.0070001912	8
1305	659	0.0070001912	7
1305	659	0.0070001912	6
1305	659	0.0070001912	5
1305	659	0.0070001912	4
1305	659	0.0070001912	3
1305	659	0.0070001912	2
1305	659	0.0070001912	1
1305	659	0.0070001912	0
1305	940	0.013	1
1305	941	0.013	2
1305	942	0.013	3
1305	943	0.013	4
1305	944	0.013	5
1305	945	0.013	6
1305	946	0.013	7
1305	947	0.013	8
1305	948	0.013	9
1305	949	0.013	10
1305	1249	0.019	11
1305	1250	0.019	12
1305	1251	0.019	13
1305	1252	0.019	14
1305	1253	0.019	15
1305	1254	0.019	16
1305	1255	0.019	17
1305	1256	0.019	18
1305	1257	0.019	19
1305	1258	0.019	20
1305	1569	0.025	21
1305	1570	0.025	22
1305	1571	0.025	23
1305	1572	0.025	24
1305	1573	0.025	25
1305	1574	0.025	26
1305	1575	0.025	27
1305	1576	0.025	28
1305	1577	0.025	29
1305	1578	0.025	30
1305	1918	0.031	31
1305	1919	0.031	32
1305	1920	0.031	33
1305	1921	0.031	34
1305	1922	0.031	35
1305	1923	0.031	36
1305	1924	0.031	37
1305	1925	0.031	38
1305	1926	0.031	39
1305	1927	0.031	40
1305	2302	0.037	41
1305	2303	0.037	42
1305	2304	0.037	43
1305	2305	0.037	44
1305	2306	0.037	45
1305	2307	0.037	46
1305	2308	0.037	47
1305	2309	0.037	48
1305	2310	0.037	49
1305	2311	0.037	50
1305	2704	0.043	51
1305	2705	0.043	52
1305	2706	0.043	53
1305	2707	0.043	54
1305	2708	0.043	55
1305	2709	0.043	56
1305	2710	0.043	57
1305	2711	0.043	58
1305	2712	0.043	59
1305	2713	0.043	60
1305	3116	0.049	61
1305	3117	0.049	62
1305	3118	0.049	63
1305	3119	0.049	64
1305	3120	0.049	65
1305	3121	0.049	66
1305	3122	0.049	67
1305	3123	0.049	68
1305	3124	0.049	69
1305	3125	0.049	70
1305	3579	0.055	71
1305	3580	0.055	72
1305	3581	0.055	73
1305	3582	0.055	74
1305	3583	0.055	75
1305	3584	0.055	76
1305	3585	0.055	77
1305	3586	0.055	78
1305	3587	0.055	79
1305	3588	0.055	80
1305	12598	0.2070005104	79
1305	12598	0.2070005104	78
1305	12598	0.2070005104	77
1305	12598	0.2070005104	76
1305	12598	0.2070005104	75
1305	12598	0.2070005104	74
1305	12598	0.2070005104	73
1305	12598	0.2070005104	72
1305	12598	0.2070005104	71
1305	12598	0.2070005104	70
1305	12598	0.2070005104	69
1305	12598	0.2070005104	68
1305	12598	0.2070005104	67
1305	12598	0.2070005104	66
1305	12598	0.2070005104	65
1305	12598	0.2070005104	64
1305	12598	0.2070005104	63
1305	12598	0.2070005104	62
1305	12598	0.2070005104	61
1305	12598	0.2070005104	60
1305	12598	0.2070005104	59
1305	12598	0.2070005104	58
1305	12598	0.2070005104	57
1305	12598	0.2070005104	56
1305	12598	0.2070005104	55
1305	12598	0.2070005104	54
1305	12598	0.2070005104	53
1305	12598	0.2070005104	52
1305	12598	0.2070005104	51
1305	12598	0.2070005104	50
1305	12598	0.2070005104	49
1305	12598	0.2070005104	48
1305	12598	0.2070005104	47
1305	12598	0.2070005104	46
1305	12598	0.2070005104	45
1305	12598	0.2070005104	44
1305	12598	0.2070005104	43
1305	12598	0.2070005104	42
1305	12598	0.2070005104	41
1305	12598	0.2070005104	40
1305	12598	0.2070005104	39
1305	12598	0.2070005104	38
1305	12598	0.2070005104	37
1305	12598	0.2070005104	36
1305	12598	0.2070005104	35
1305	12598	0.2070005104	34
1305	12598	0.2070005104	33
1305	12598	0.2070005104	32
1305	12598	0.2070005104	31
1305	12598	0.2070005104	30
1305	12598	0.2070005104	29
1305	12598	0.2070005104	28
1305	12598	0.2070005104	27
1305	12598	0.2070005104	26
1305	12598	0.2070005104	25
1305	12598	0.2070005104	24
1305	12598	0.2070005104	23
1305	12598	0.2070005104	22
1305	12598	0.2070005104	21
1305	12598	0.2070005104	20
1305	12598	0.2070005104	19
1305	12598	0.2070005104	18
1305	12598	0.2070005104	17
1305	12598	0.2070005104	16
1305	12598	0.2070005104	15
1305	12598	0.2070005104	14
1305	12598	0.2070005104	13
1305	12598	0.2070005104	12
1305	12598	0.2070005104	11
1305	12598	0.2070005104	10
1305	12598	0.2070005104	9
1305	12598	0.2070005104	8
1305	12598	0.2070005104	7
1305	12598	0.2070005104	6
1305	12598	0.2070005104	5
1305	12598	0.2070005104	4
1305	12598	0.2070005104	3
1305	12598	0.2070005104	2
1305	12598	0.2070005104	1
1305	12598	0.2070005104	0
1319	893	0.012270864309	7504
1319	158713	3.012270864309	7504
1320	893	0.012270864309	7504
1320	158713	3.012270864309	7504
1322	893	0.012270864309	0
1322	158713	3.012270864309	0
1333	893	0.012270864309	0
1333	158713	3.012270864309	0
1343	978	0.013169782835	7504
1343	158775	3.013169782835	7504
1344	978	0.013169782835	7504
1344	158775	3.013169782835	7504
1346	978	0.013169782835	0
1346	158775	3.013169782835	0
1357	978	0.013169782835	0
1357	158775	3.013169782835	0
1367	986	0.013528948517	7504
1367	158782	3.013528948517	7504
1368	986	0.013528948517	7504
1368	158782	3.013528948517	7504
1370	986	0.013528948517	0
1370	158782	3.013528948517	0
1381	986	0.013528948517	0
1381	158782	3.013528948517	0
1391	1391	0.021843716542	7504
1392	1391	0.021843716542	7504
1394	1391	0.021843716542	0
1405	1391	0.021843716542	0
1415	1522	0.024352218178	7504
1416	1522	0.024352218178	7504
1418	1522	0.024352218178	0
1429	1522	0.024352218178	0
1439	1619	0.025271030879	7504
1440	1619	0.025271030879	7504
1442	1619	0.025271030879	0
1453	1619	0.025271030879	0
1463	2041	0.032546852513	7504
1464	2041	0.032546852513	7504
1466	2041	0.032546852513	0
1477	2041	0.032546852513	0
1487	2132	0.034129833705	7504
1488	2132	0.034129833705	7504
1490	2132	0.034129833705	0
1501	2132	0.034129833705	0
1511	2140	0.034439526021	7504
1512	2140	0.034439526021	7504
1514	2140	0.034439526021	0
1525	2140	0.034439526021	0
1535	2360	0.037261432968	7504
1536	2360	0.037261432968	7504
1538	2360	0.037261432968	0
1549	2360	0.037261432968	0
1559	2992	0.047532676856	7504
1560	2992	0.047532676856	7504
1562	2992	0.047532676856	0
1573	2992	0.047532676856	0
1583	3069	0.048413756283	7504
1584	3069	0.048413756283	7504
1586	3069	0.048413756283	0
1597	3069	0.048413756283	0
1607	3323	0.051566809383	7504
1608	3323	0.051566809383	7504
1610	3323	0.051566809383	0
1621	3323	0.051566809383	0
1631	3386	0.05273845314	7504
1632	3386	0.05273845314	7504
1634	3386	0.05273845314	0
1645	3386	0.05273845314	0
1655	3394	0.052847558425	7504
1656	3394	0.052847558425	7504
1658	3394	0.052847558425	0
1669	3394	0.052847558425	0
1679	3931	0.057084039294	7504
1680	3931	0.057084039294	7504
1682	3931	0.057084039294	0
1693	3931	0.057084039294	0
1703	4219	0.061955560849	7504
1704	4219	0.061955560849	7504
1706	4219	0.061955560849	0
1717	4219	0.061955560849	0
1727	4496	0.064453871725	7504
1728	4496	0.064453871725	7504
1730	4496	0.064453871725	0
1741	4496	0.064453871725	0
1751	5379	0.075361895796	7504
1752	5379	0.075361895796	7504
1754	5379	0.075361895796	0
1765	5379	0.075361895796	0
1775	6421	0.091364573385	7504
1776	6421	0.091364573385	7504
1778	6421	0.091364573385	0
1789	6421	0.091364573385	0
