file 8360121 1589563784                                         
version 2
run CAIN-41-20200515-14:23:52-16792
attr configname CAIN
attr datetime 20200515-14:23:52
attr dist 200
attr experiment CAIN
attr inifile omnetpp.ini
attr iterationvars "$numUe=25, $pwr=-50, $dist=200, $mob=\"./movements/RPGM-0.0.movements\""
attr iterationvars2 "$numUe=25, $pwr=-50, $dist=200, $mob=\"./movements/RPGM-0.0.movements\", $repetition=1"
attr measurement "$numUe=25, $pwr=-50, $dist=200, $mob=\"./movements/RPGM-0.0.movements\""
attr mob "\"./movements/RPGM-0.0.movements\""
attr network lte.simulations.networks.CAIN
attr numUe 25
attr processid 16792
attr pwr -50
attr repetition 1
attr replication #1
attr resultdir results
attr runnumber 41
attr seedset 1
param **.**.amcMode "\"AUTO\""
param **.amcMode "\"D2D\""
param **.cainNetwork true
param **.channelControl.alpha 1.0
param **.channelControl.carrierFrequency 2100e+6Hz
param **.channelControl.pMax 10W
param **.d2dCqi 7
param **.deployer.numRbDl 50
param **.deployer.numRbUl 50
param **.distThresh ${dist=200}
param **.fbDelay 1
param **.feedbackComputation "xmldoc(\"config_channel.xml\")"
param **.mobility.constraintAreaMaxX 1000m
param **.mobility.constraintAreaMaxY 1000m
param **.mobility.constraintAreaMaxZ 0m
param **.mobility.constraintAreaMinX 0m
param **.mobility.constraintAreaMinY 0m
param **.mobility.constraintAreaMinZ 0m
param **.nic.phy.channelModel "xmldoc(\"config_channel.xml\")"
param **.numBands 50
param **.pwrThresh "${pwr= -50}"
param **.qtdThresh 3
param **.rbAllocationType "\"localized\""
param **.routingRecorder.enabled false
param **.tcpApp[*].tClose -1s
param **.ueD2DTx[*].mobility.changeAngleBy "normal(0deg, 30deg)"
param **.ueD2DTx[*].mobility.changeInterval "normal(5s, 0.1s)"
param **.ueD2DTx[*].mobility.nodeId -1
param **.ueD2DTx[*].mobility.speed "normal(2mps, 0.01mps)"
param **.ueD2DTx[*].mobility.traceFile "${mob=\"./movements/RWP-0.0.movements\",\"./movements/RWP-0.5.movements\",\"./movements/RPGM-0.0.movements\",\"./movements/RPGM-0.5.movements\",\"./movements/RWPRPGM-0.0.movements\",\"./movements/RWPRPGM-0.5.movements\"}"
param **.ueD2DTx[*].mobilityType "\"BonnMotionMobility\""
param **.usePreconfiguredTxParams false
param *.eNodeB*.numX2Apps 1
param *.eNodeB*.x2App[*].server.localPort "5000 + ancestorIndex(1)"
param *.eNodeB.d2dCapable false
param *.eNodeB.mobility.initFromDisplayString false
param *.eNodeB.mobility.initialX 300m
param *.eNodeB.mobility.initialY 300m
param *.eNodeB.nic.phy.enableD2DCqiReporting true
param *.eNodeB.txPower 19952.62315mw
param *.eNodeB.x2App[0].client.connectAddress "\"eNodeB1%x2ppp0\""
param *.eNodeB1.d2dCapable true
param *.eNodeB1.mobility.initFromDisplayString false
param *.eNodeB1.mobility.initialX 700m
param *.eNodeB1.mobility.initialY 300m
param *.eNodeB1.nic.phy.enableD2DCqiReporting true
param *.eNodeB1.txPower 19952.62315mw
param *.eNodeB1.x2App[0].client.connectAddress "\"eNodeB%x2ppp0\""
param *.extCell[*].bandAllocationType "\"FULL_ALLOC\""
param *.extCell[*].bandUtilization 0.5
param *.extCell[*].txDirection "\"ANISOTROPIC\""
param *.extCell[*].txPower 20
param *.extCell[0].position_x 100m
param *.extCell[0].position_y 600m
param *.extCell[0].txAngle 315
param *.extCell[1].position_x 600m
param *.extCell[1].position_y 600m
param *.extCell[1].txAngle 225
param *.numExtCells 2
param *.numUeCell 0
param *.numUeD2DRx 1
param *.numUeD2DTx 1
param *.ue*.macCellId 1
param *.ue*.masterId 1
param *.ue*.mobility.initFromDisplayString false
param *.ue*[0].macCellId 1
param *.ue*[0].masterId 1
param *.ue*[0].mobility.initFromDisplayString false
param *.ueD2D*.numTcpApps 1
param *.ueD2D*[*].d2dCapable true
param *.ueD2D*[0].d2dCapable false
param *.ueD2D*[0].numTcpApps 1
param *.ueD2DRx[0].mobility.initialX 310m
param *.ueD2DRx[0].mobility.initialY 350m
param *.ueD2DRx[0].tcpApp[*].localPort 1000
param *.ueD2DRx[0].tcpApp[*].typename "\"TCPSinkApp\""
param *.ueD2DTx*.nic.d2dPeerAddresses "\"ueD2DTx[1]\""
param *.ueD2DTx*.tcpApp[*].connectAddress "\"ueD2DTx[0]\""
param *.ueD2DTx*.tcpApp[*].localAddress "\"ueD2DTx\""
param *.ueD2DTx*.tcpApp[*].localPort 1000
param *.ueD2DTx*.tcpApp[*].sendBytes 1GiB
param *.ueD2DTx*.tcpApp[*].typename "\"TCPSessionApp\""
param *.ueD2DTx*.tcpApp[0].active true
param *.ueD2DTx*.tcpApp[0].connectPort 1000
param *.ueD2DTx*.tcpApp[0].tOpen uniform(0.010s,0.1s)
param *.ueD2DTx*.tcpApp[0].tSend uniform(0.15s,0.5s)
param *.ueD2DTx[0].mobility.initialX 290m
param *.ueD2DTx[0].mobility.initialY 350m
param *.ueD2DTx[0].tcpApp[*].localPort 1000
param *.ueD2DTx[0].tcpApp[*].sendBytes 1GiB
param *.ueD2DTx[0].tcpApp[*].typename "\"TCPSessionApp\""
param *.ueD2DTx[0].tcpApp[0].active true
param *.ueD2DTx[0].tcpApp[0].connectAddress "\"ueD2DRx[0]\""
param *.ueD2DTx[0].tcpApp[0].connectPort 1000
param *.ueD2DTx[0].tcpApp[0].localAddress "\"ueD2DTx[0]\""
param *.ueD2DTx[0].tcpApp[0].tOpen uniform(0.010s,0.1s)
param *.ueD2DTx[0].tcpApp[0].tSend uniform(0.15s,0.5s)

vector 8  CAIN.server.ppp[0].queue  queueLength:vector  ETV
attr interpolationmode  sample-hold
attr title  "queue length, vector"
vector 9  CAIN.server.ppp[0].ppp  txState:vector  ETV
attr interpolationmode  sample-hold
attr title  "tx state, vector"
vector 24  CAIN.router.ppp[0].queue  queueLength:vector  ETV
attr interpolationmode  sample-hold
attr title  "queue length, vector"
vector 25  CAIN.router.ppp[0].ppp  txState:vector  ETV
attr interpolationmode  sample-hold
attr title  "tx state, vector"
vector 35  CAIN.router.ppp[1].queue  queueLength:vector  ETV
attr interpolationmode  sample-hold
attr title  "queue length, vector"
vector 36  CAIN.router.ppp[1].ppp  txState:vector  ETV
attr interpolationmode  sample-hold
attr title  "tx state, vector"
vector 56  CAIN.pgw.ppp[0].queue  queueLength:vector  ETV
attr interpolationmode  sample-hold
attr title  "queue length, vector"
vector 57  CAIN.pgw.ppp[0].ppp  txState:vector  ETV
attr interpolationmode  sample-hold
attr title  "tx state, vector"
vector 67  CAIN.pgw.ppp[1].queue  queueLength:vector  ETV
attr interpolationmode  sample-hold
attr title  "queue length, vector"
vector 68  CAIN.pgw.ppp[1].ppp  txState:vector  ETV
attr interpolationmode  sample-hold
attr title  "tx state, vector"
vector 78  CAIN.pgw.pppInterface.queue  queueLength:vector  ETV
attr interpolationmode  sample-hold
attr title  "queue length, vector"
vector 79  CAIN.pgw.pppInterface.ppp  txState:vector  ETV
attr interpolationmode  sample-hold
attr title  "tx state, vector"
vector 120  CAIN.eNodeB.pppIf.queue  queueLength:vector  ETV
attr interpolationmode  sample-hold
attr title  "queue length, vector"
vector 121  CAIN.eNodeB.pppIf.ppp  txState:vector  ETV
attr interpolationmode  sample-hold
attr title  "tx state, vector"
vector 131  CAIN.eNodeB.x2ppp[0].queue  queueLength:vector  ETV
attr interpolationmode  sample-hold
attr title  "queue length, vector"
vector 132  CAIN.eNodeB.x2ppp[0].ppp  txState:vector  ETV
attr interpolationmode  sample-hold
attr title  "tx state, vector"
vector 178  CAIN.eNodeB1.pppIf.queue  queueLength:vector  ETV
attr interpolationmode  sample-hold
attr title  "queue length, vector"
vector 179  CAIN.eNodeB1.pppIf.ppp  txState:vector  ETV
attr interpolationmode  sample-hold
attr title  "tx state, vector"
vector 189  CAIN.eNodeB1.x2ppp[0].queue  queueLength:vector  ETV
attr interpolationmode  sample-hold
attr title  "queue length, vector"
vector 190  CAIN.eNodeB1.x2ppp[0].ppp  txState:vector  ETV
attr interpolationmode  sample-hold
attr title  "tx state, vector"
vector 231  CAIN.ueD2DTx[0].nic.phy  servingCell:vector  ETV
attr source  servingCell
attr title  "ID of the serving eNodeB for the UE, vector"
attr unit  ""
vector 263  CAIN.ueD2DTx[1].nic.phy  servingCell:vector  ETV
attr source  servingCell
attr title  "ID of the serving eNodeB for the UE, vector"
attr unit  ""
vector 295  CAIN.ueD2DTx[2].nic.phy  servingCell:vector  ETV
attr source  servingCell
attr title  "ID of the serving eNodeB for the UE, vector"
attr unit  ""
vector 327  CAIN.ueD2DTx[3].nic.phy  servingCell:vector  ETV
attr source  servingCell
attr title  "ID of the serving eNodeB for the UE, vector"
attr unit  ""
vector 359  CAIN.ueD2DTx[4].nic.phy  servingCell:vector  ETV
attr source  servingCell
attr title  "ID of the serving eNodeB for the UE, vector"
attr unit  ""
vector 391  CAIN.ueD2DTx[5].nic.phy  servingCell:vector  ETV
attr source  servingCell
attr title  "ID of the serving eNodeB for the UE, vector"
attr unit  ""
vector 423  CAIN.ueD2DTx[6].nic.phy  servingCell:vector  ETV
attr source  servingCell
attr title  "ID of the serving eNodeB for the UE, vector"
attr unit  ""
vector 455  CAIN.ueD2DTx[7].nic.phy  servingCell:vector  ETV
attr source  servingCell
attr title  "ID of the serving eNodeB for the UE, vector"
attr unit  ""
vector 487  CAIN.ueD2DTx[8].nic.phy  servingCell:vector  ETV
attr source  servingCell
attr title  "ID of the serving eNodeB for the UE, vector"
attr unit  ""
vector 519  CAIN.ueD2DTx[9].nic.phy  servingCell:vector  ETV
attr source  servingCell
attr title  "ID of the serving eNodeB for the UE, vector"
attr unit  ""
vector 551  CAIN.ueD2DTx[10].nic.phy  servingCell:vector  ETV
attr source  servingCell
attr title  "ID of the serving eNodeB for the UE, vector"
attr unit  ""
vector 583  CAIN.ueD2DTx[11].nic.phy  servingCell:vector  ETV
attr source  servingCell
attr title  "ID of the serving eNodeB for the UE, vector"
attr unit  ""
vector 615  CAIN.ueD2DTx[12].nic.phy  servingCell:vector  ETV
attr source  servingCell
attr title  "ID of the serving eNodeB for the UE, vector"
attr unit  ""
vector 647  CAIN.ueD2DTx[13].nic.phy  servingCell:vector  ETV
attr source  servingCell
attr title  "ID of the serving eNodeB for the UE, vector"
attr unit  ""
vector 679  CAIN.ueD2DTx[14].nic.phy  servingCell:vector  ETV
attr source  servingCell
attr title  "ID of the serving eNodeB for the UE, vector"
attr unit  ""
vector 711  CAIN.ueD2DTx[15].nic.phy  servingCell:vector  ETV
attr source  servingCell
attr title  "ID of the serving eNodeB for the UE, vector"
attr unit  ""
vector 743  CAIN.ueD2DTx[16].nic.phy  servingCell:vector  ETV
attr source  servingCell
attr title  "ID of the serving eNodeB for the UE, vector"
attr unit  ""
vector 775  CAIN.ueD2DTx[17].nic.phy  servingCell:vector  ETV
attr source  servingCell
attr title  "ID of the serving eNodeB for the UE, vector"
attr unit  ""
vector 807  CAIN.ueD2DTx[18].nic.phy  servingCell:vector  ETV
attr source  servingCell
attr title  "ID of the serving eNodeB for the UE, vector"
attr unit  ""
vector 839  CAIN.ueD2DTx[19].nic.phy  servingCell:vector  ETV
attr source  servingCell
attr title  "ID of the serving eNodeB for the UE, vector"
attr unit  ""
vector 871  CAIN.ueD2DTx[20].nic.phy  servingCell:vector  ETV
attr source  servingCell
attr title  "ID of the serving eNodeB for the UE, vector"
attr unit  ""
vector 903  CAIN.ueD2DTx[21].nic.phy  servingCell:vector  ETV
attr source  servingCell
attr title  "ID of the serving eNodeB for the UE, vector"
attr unit  ""
vector 935  CAIN.ueD2DTx[22].nic.phy  servingCell:vector  ETV
attr source  servingCell
attr title  "ID of the serving eNodeB for the UE, vector"
attr unit  ""
vector 967  CAIN.ueD2DTx[23].nic.phy  servingCell:vector  ETV
attr source  servingCell
attr title  "ID of the serving eNodeB for the UE, vector"
attr unit  ""
vector 999  CAIN.ueD2DTx[24].nic.phy  servingCell:vector  ETV
attr source  servingCell
attr title  "ID of the serving eNodeB for the UE, vector"
attr unit  ""
vector 1023  CAIN.eNodeB.sctp  "Throughput of Association 3"  ETV
vector 1045  CAIN.eNodeB1.sctp  "Throughput of Association 4"  ETV
vector 1067  CAIN.eNodeB.sctp  "Throughput of Association 1"  ETV
vector 1087  CAIN.eNodeB.sctp  "Fast Recovery State 1:10.0.5.2"  ETV
vector 1116  CAIN.eNodeB1.sctp  "Throughput of Association 2"  ETV
vector 1136  CAIN.eNodeB1.sctp  "Fast Recovery State 2:10.0.5.1"  ETV
vector 128  CAIN.eNodeB.x2ppp[0].queue  rcvdPk:vector(packetBytes)  ETV
attr interpolationmode  none
attr title  "received packets, vector(packetBytes)"
vector 130  CAIN.eNodeB.x2ppp[0].queue  queueingTime:vector  ETV
attr interpolationmode  none
attr title  "queueing time, vector"
vector 186  CAIN.eNodeB1.x2ppp[0].queue  rcvdPk:vector(packetBytes)  ETV
attr interpolationmode  none
attr title  "received packets, vector(packetBytes)"
vector 188  CAIN.eNodeB1.x2ppp[0].queue  queueingTime:vector  ETV
attr interpolationmode  none
attr title  "queueing time, vector"
vector 137  CAIN.eNodeB.x2ppp[0].ppp  rcvdPkFromHL:vector(packetBytes)  ETV
attr interpolationmode  none
attr source  packetReceivedFromUpper
attr title  "packets received from higher layer, vector(packetBytes)"
vector 133  CAIN.eNodeB.x2ppp[0].ppp  txPk:vector(packetBytes)  ETV
attr interpolationmode  none
attr source  packetSentToLower
attr title  "packets transmitted, vector(packetBytes)"
vector 195  CAIN.eNodeB1.x2ppp[0].ppp  rcvdPkFromHL:vector(packetBytes)  ETV
attr interpolationmode  none
attr source  packetReceivedFromUpper
attr title  "packets received from higher layer, vector(packetBytes)"
vector 191  CAIN.eNodeB1.x2ppp[0].ppp  txPk:vector(packetBytes)  ETV
attr interpolationmode  none
attr source  packetSentToLower
attr title  "packets transmitted, vector(packetBytes)"
vector 192  CAIN.eNodeB1.x2ppp[0].ppp  rxPkOk:vector(packetBytes)  ETV
attr interpolationmode  none
attr source  rxPkOk
attr title  "packets received OK, vector(packetBytes)"
vector 196  CAIN.eNodeB1.x2ppp[0].ppp  passedUpPk:vector(packetBytes)  ETV
attr interpolationmode  none
attr source  packetSentToUpper
attr title  "packets passed to higher layer, vector(packetBytes)"
vector 134  CAIN.eNodeB.x2ppp[0].ppp  rxPkOk:vector(packetBytes)  ETV
attr interpolationmode  none
attr source  rxPkOk
attr title  "packets received OK, vector(packetBytes)"
vector 138  CAIN.eNodeB.x2ppp[0].ppp  passedUpPk:vector(packetBytes)  ETV
attr interpolationmode  none
attr source  packetSentToUpper
attr title  "packets passed to higher layer, vector(packetBytes)"
vector 1165  CAIN.eNodeB1.sctp  "Throughput of Association 4"  ETV
vector 1042  CAIN.eNodeB1.sctp  "Peer Rwnd 4"  ETV
vector 1185  CAIN.eNodeB1.sctp  "Fast Recovery State 5:10.0.4.1"  ETV
vector 1212  CAIN.eNodeB1.sctp  "Fast Recovery State 5:10.0.2.2"  ETV
vector 1239  CAIN.eNodeB1.sctp  "Fast Recovery State 5:10.0.5.1"  ETV
vector 1268  CAIN.eNodeB.sctp  "Throughput of Association 3"  ETV
vector 1020  CAIN.eNodeB.sctp  "Peer Rwnd 3"  ETV
vector 1288  CAIN.eNodeB.sctp  "Fast Recovery State 6:10.0.4.2"  ETV
vector 1315  CAIN.eNodeB.sctp  "Fast Recovery State 6:10.0.3.2"  ETV
vector 1342  CAIN.eNodeB.sctp  "Fast Recovery State 6:10.0.5.2"  ETV
vector 1064  CAIN.eNodeB.sctp  "Peer Rwnd 1"  ETV
vector 1369  CAIN.eNodeB.sctp  "Fast Recovery State 1:10.0.4.2"  ETV
vector 1396  CAIN.eNodeB.sctp  "Fast Recovery State 1:10.0.3.2"  ETV
vector 1113  CAIN.eNodeB1.sctp  "Peer Rwnd 2"  ETV
vector 1423  CAIN.eNodeB1.sctp  "Fast Recovery State 2:10.0.4.1"  ETV
vector 1450  CAIN.eNodeB1.sctp  "Fast Recovery State 2:10.0.2.2"  ETV
vector 1195  CAIN.eNodeB1.sctp  "Slow Start Threshold 5:10.0.2.2"  ETV
vector 1196  CAIN.eNodeB1.sctp  "Congestion Window 5:10.0.2.2"  ETV
vector 1197  CAIN.eNodeB1.sctp  "Bandwidth 5:10.0.2.2"  ETV
vector 1200  CAIN.eNodeB1.sctp  "HB Sent 5:10.0.2.2"  ETV
vector 1193  CAIN.eNodeB1.sctp  "RTO 5:10.0.2.2"  ETV
vector 1168  CAIN.eNodeB1.sctp  "Slow Start Threshold 5:10.0.4.1"  ETV
vector 1169  CAIN.eNodeB1.sctp  "Congestion Window 5:10.0.4.1"  ETV
vector 1170  CAIN.eNodeB1.sctp  "Bandwidth 5:10.0.4.1"  ETV
vector 1173  CAIN.eNodeB1.sctp  "HB Sent 5:10.0.4.1"  ETV
vector 1166  CAIN.eNodeB1.sctp  "RTO 5:10.0.4.1"  ETV
vector 1222  CAIN.eNodeB1.sctp  "Slow Start Threshold 5:10.0.5.1"  ETV
vector 1223  CAIN.eNodeB1.sctp  "Congestion Window 5:10.0.5.1"  ETV
vector 1224  CAIN.eNodeB1.sctp  "Bandwidth 5:10.0.5.1"  ETV
vector 1220  CAIN.eNodeB1.sctp  "RTO 5:10.0.5.1"  ETV
vector 1298  CAIN.eNodeB.sctp  "Slow Start Threshold 6:10.0.3.2"  ETV
vector 1299  CAIN.eNodeB.sctp  "Congestion Window 6:10.0.3.2"  ETV
vector 1300  CAIN.eNodeB.sctp  "Bandwidth 6:10.0.3.2"  ETV
vector 1303  CAIN.eNodeB.sctp  "HB Sent 6:10.0.3.2"  ETV
vector 1296  CAIN.eNodeB.sctp  "RTO 6:10.0.3.2"  ETV
vector 1271  CAIN.eNodeB.sctp  "Slow Start Threshold 6:10.0.4.2"  ETV
vector 1272  CAIN.eNodeB.sctp  "Congestion Window 6:10.0.4.2"  ETV
vector 1273  CAIN.eNodeB.sctp  "Bandwidth 6:10.0.4.2"  ETV
vector 1276  CAIN.eNodeB.sctp  "HB Sent 6:10.0.4.2"  ETV
vector 1269  CAIN.eNodeB.sctp  "RTO 6:10.0.4.2"  ETV
vector 1325  CAIN.eNodeB.sctp  "Slow Start Threshold 6:10.0.5.2"  ETV
vector 1326  CAIN.eNodeB.sctp  "Congestion Window 6:10.0.5.2"  ETV
vector 1327  CAIN.eNodeB.sctp  "Bandwidth 6:10.0.5.2"  ETV
vector 1323  CAIN.eNodeB.sctp  "RTO 6:10.0.5.2"  ETV
vector 1076  CAIN.eNodeB.sctp  "HB ACK Sent 1:10.0.5.2"  ETV
vector 1077  CAIN.eNodeB.sctp  "HB Received 1:10.0.5.2"  ETV
vector 1125  CAIN.eNodeB1.sctp  "HB ACK Sent 2:10.0.5.1"  ETV
vector 1126  CAIN.eNodeB1.sctp  "HB Received 2:10.0.5.1"  ETV
vector 1379  CAIN.eNodeB.sctp  "Slow Start Threshold 1:10.0.3.2"  ETV
vector 1380  CAIN.eNodeB.sctp  "Congestion Window 1:10.0.3.2"  ETV
vector 1381  CAIN.eNodeB.sctp  "Bandwidth 1:10.0.3.2"  ETV
vector 1384  CAIN.eNodeB.sctp  "HB Sent 1:10.0.3.2"  ETV
vector 1377  CAIN.eNodeB.sctp  "RTO 1:10.0.3.2"  ETV
vector 1352  CAIN.eNodeB.sctp  "Slow Start Threshold 1:10.0.4.2"  ETV
vector 1353  CAIN.eNodeB.sctp  "Congestion Window 1:10.0.4.2"  ETV
vector 1354  CAIN.eNodeB.sctp  "Bandwidth 1:10.0.4.2"  ETV
vector 1357  CAIN.eNodeB.sctp  "HB Sent 1:10.0.4.2"  ETV
vector 1350  CAIN.eNodeB.sctp  "RTO 1:10.0.4.2"  ETV
vector 1070  CAIN.eNodeB.sctp  "Slow Start Threshold 1:10.0.5.2"  ETV
vector 1071  CAIN.eNodeB.sctp  "Congestion Window 1:10.0.5.2"  ETV
vector 1072  CAIN.eNodeB.sctp  "Bandwidth 1:10.0.5.2"  ETV
vector 1068  CAIN.eNodeB.sctp  "RTO 1:10.0.5.2"  ETV
vector 1433  CAIN.eNodeB1.sctp  "Slow Start Threshold 2:10.0.2.2"  ETV
vector 1434  CAIN.eNodeB1.sctp  "Congestion Window 2:10.0.2.2"  ETV
vector 1435  CAIN.eNodeB1.sctp  "Bandwidth 2:10.0.2.2"  ETV
vector 1438  CAIN.eNodeB1.sctp  "HB Sent 2:10.0.2.2"  ETV
vector 1431  CAIN.eNodeB1.sctp  "RTO 2:10.0.2.2"  ETV
vector 1406  CAIN.eNodeB1.sctp  "Slow Start Threshold 2:10.0.4.1"  ETV
vector 1407  CAIN.eNodeB1.sctp  "Congestion Window 2:10.0.4.1"  ETV
vector 1408  CAIN.eNodeB1.sctp  "Bandwidth 2:10.0.4.1"  ETV
vector 1411  CAIN.eNodeB1.sctp  "HB Sent 2:10.0.4.1"  ETV
vector 1404  CAIN.eNodeB1.sctp  "RTO 2:10.0.4.1"  ETV
vector 1119  CAIN.eNodeB1.sctp  "Slow Start Threshold 2:10.0.5.1"  ETV
vector 1120  CAIN.eNodeB1.sctp  "Congestion Window 2:10.0.5.1"  ETV
vector 1121  CAIN.eNodeB1.sctp  "Bandwidth 2:10.0.5.1"  ETV
vector 1117  CAIN.eNodeB1.sctp  "RTO 2:10.0.5.1"  ETV
vector 1333  CAIN.eNodeB.sctp  "HB ACK Received 6:10.0.5.2"  ETV
vector 1324  CAIN.eNodeB.sctp  "RTT 6:10.0.5.2"  ETV
vector 1230  CAIN.eNodeB1.sctp  "HB ACK Received 5:10.0.5.1"  ETV
vector 1221  CAIN.eNodeB1.sctp  "RTT 5:10.0.5.1"  ETV
vector 1331  CAIN.eNodeB.sctp  "HB ACK Sent 6:10.0.5.2"  ETV
vector 1332  CAIN.eNodeB.sctp  "HB Received 6:10.0.5.2"  ETV
vector 1228  CAIN.eNodeB1.sctp  "HB ACK Sent 5:10.0.5.1"  ETV
vector 1229  CAIN.eNodeB1.sctp  "HB Received 5:10.0.5.1"  ETV
vector 1127  CAIN.eNodeB1.sctp  "HB ACK Received 2:10.0.5.1"  ETV
vector 1118  CAIN.eNodeB1.sctp  "RTT 2:10.0.5.1"  ETV
vector 1078  CAIN.eNodeB.sctp  "HB ACK Received 1:10.0.5.2"  ETV
vector 1069  CAIN.eNodeB.sctp  "RTT 1:10.0.5.2"  ETV
vector 96  CAIN.eNodeB.nic.mac  receivedPacketFromLowerLayer:vector(packetBytes)  ETV
attr interpolationmode  none
attr source  receivedPacketFromLowerLayer
vector 1465  CAIN.eNodeB.sctp  "SendQueue of Association 6"  ETV
vector 1328  CAIN.eNodeB.sctp  "TSN Sent 6:10.0.5.2"  ETV
vector 1335  CAIN.eNodeB.sctp  "Outstanding Bytes 6:10.0.5.2"  ETV
vector 1008  CAIN.eNodeB.sctp  "Outstanding Bytes 3:Total"  ETV
vector 1334  CAIN.eNodeB.sctp  "Queued Sent Bytes 6:10.0.5.2"  ETV
vector 1007  CAIN.eNodeB.sctp  "Queued Sent Bytes 3:Total"  ETV
vector 1123  CAIN.eNodeB1.sctp  "TSN Received 2:10.0.5.1"  ETV
vector 1099  CAIN.eNodeB1.sctp  "Queued Received Bytes 2:Total"  ETV
vector 1095  CAIN.eNodeB1.sctp  "Advertised Receiver Window 2"  ETV
vector 1104  CAIN.eNodeB1.sctp  "Number of Total Gap Blocks Stored 2"  ETV
vector 1105  CAIN.eNodeB1.sctp  "Number of Revokable Gap Blocks Stored 2"  ETV
vector 1106  CAIN.eNodeB1.sctp  "Number of Non-Revokable Gap Blocks Stored 2"  ETV
vector 1107  CAIN.eNodeB1.sctp  "Number of Duplicate TSNs Stored 2"  ETV
vector 1111  CAIN.eNodeB1.sctp  "Length of SACK Sent 2"  ETV
vector 1108  CAIN.eNodeB1.sctp  "Number of Revokable Gap Blocks Sent 2"  ETV
vector 1109  CAIN.eNodeB1.sctp  "Number of Non-Revokable Gap Blocks Sent 2"  ETV
vector 1110  CAIN.eNodeB1.sctp  "Number of Duplicate TSNs Sent 2"  ETV
vector 1115  CAIN.eNodeB1.sctp  "End to End Delay of Association 2"  ETV
vector 199  CAIN.eNodeB1.x2App[0].client  rcvdPk:vector(packetBytes)  ETV
attr interpolationmode  none
attr source  rcvdPk
attr title  "packets received, vector(packetBytes)"
vector 1464  CAIN.eNodeB.sctp  "Number of Gap Blocks in Last SACK of Association 6"  ETV
vector 1009  CAIN.eNodeB.sctp  "Number of Revokable Gap Blocks in SACK 3"  ETV
vector 1010  CAIN.eNodeB.sctp  "Number of Non-Revokable Gap Blocks in SACK 3"  ETV
vector 1345  CAIN.eNodeB.sctp  "TSN Acked CumAck 6:10.0.5.2"  ETV
vector 1311  CAIN.eNodeB.sctp  "Number of Gap Acked Chunks in Last SACK 6:10.0.3.2"  ETV
vector 1312  CAIN.eNodeB.sctp  "Number of Non-Revokable Gap Acked Chunks in Last SACK 6:10.0.3.2"  ETV
vector 1313  CAIN.eNodeB.sctp  "Number of Gap Missed Chunks in Last SACK 6:10.0.3.2"  ETV
vector 1284  CAIN.eNodeB.sctp  "Number of Gap Acked Chunks in Last SACK 6:10.0.4.2"  ETV
vector 1285  CAIN.eNodeB.sctp  "Number of Non-Revokable Gap Acked Chunks in Last SACK 6:10.0.4.2"  ETV
vector 1286  CAIN.eNodeB.sctp  "Number of Gap Missed Chunks in Last SACK 6:10.0.4.2"  ETV
vector 1338  CAIN.eNodeB.sctp  "Number of Gap Acked Chunks in Last SACK 6:10.0.5.2"  ETV
vector 1339  CAIN.eNodeB.sctp  "Number of Non-Revokable Gap Acked Chunks in Last SACK 6:10.0.5.2"  ETV
vector 1340  CAIN.eNodeB.sctp  "Number of Gap Missed Chunks in Last SACK 6:10.0.5.2"  ETV
vector 1019  CAIN.eNodeB.sctp  "Arwnd in Last SACK 3"  ETV
vector 1347  CAIN.eNodeB.sctp  "TSN PseudoCumAck 6:10.0.5.2"  ETV
vector 1348  CAIN.eNodeB.sctp  "TSN RTXPseudoCumAck 6:10.0.5.2"  ETV
vector 1341  CAIN.eNodeB.sctp  "Partial Bytes Acked 6:10.0.5.2"  ETV
vector 1493  CAIN.ueD2DTx[13].tcp  tcpRcvQueueBytes  ETV
vector 1480  CAIN.ueD2DTx[13].tcp  "advertised window"  ETV
vector 1479  CAIN.ueD2DTx[13].tcp  "receive window"  ETV
vector 1482  CAIN.ueD2DTx[13].tcp  "sent ack"  ETV
vector 621  CAIN.ueD2DTx[13].nic.pdcpRrc  receivedPacketFromUpperLayer:vector(packetBytes)  ETV
attr interpolationmode  none
attr source  receivedPacketFromUpperLayer
vector 624  CAIN.ueD2DTx[13].nic.pdcpRrc  sentPacketToLowerLayer:vector(packetBytes)  ETV
attr interpolationmode  none
attr source  sentPacketToLowerLayer
vector 625  CAIN.ueD2DTx[13].nic.mac  receivedPacketFromUpperLayer:vector(packetBytes)  ETV
attr interpolationmode  none
attr source  receivedPacketFromUpperLayer
vector 635  CAIN.ueD2DTx[13].nic.mac  CainHopMessageSent:vector  ETV
attr interpolationmode  none
attr title  "# of Sent CAIN hop message, vector"
vector 628  CAIN.ueD2DTx[13].nic.mac  sentPacketToLowerLayer:vector(packetBytes)  ETV
attr interpolationmode  none
attr source  sentPacketToLowerLayer
vector 818  CAIN.ueD2DTx[19].nic.mac  receivedPacketFromLowerLayer:vector(packetBytes)  ETV
attr interpolationmode  none
attr source  receivedPacketFromLowerLayer
vector 820  CAIN.ueD2DTx[19].nic.mac  sentPacketToLowerLayer:vector(packetBytes)  ETV
attr interpolationmode  none
attr source  sentPacketToLowerLayer
vector 242  CAIN.ueD2DTx[1].nic.mac  receivedPacketFromLowerLayer:vector(packetBytes)  ETV
attr interpolationmode  none
attr source  receivedPacketFromLowerLayer
vector 244  CAIN.ueD2DTx[1].nic.mac  sentPacketToLowerLayer:vector(packetBytes)  ETV
attr interpolationmode  none
attr source  sentPacketToLowerLayer
vector 111  CAIN.eNodeB.nic.mac  racpkt:vector  ETV
attr interpolationmode  none
attr title  "eNB received racpkt message, vector"
vector 112  CAIN.eNodeB.nic.mac  racDistanceSignal:vector  ETV
attr interpolationmode  none
attr title  "Rac distance to enb, vector"
vector 113  CAIN.eNodeB.nic.mac  racServedDevsSignal:vector  ETV
attr interpolationmode  none
attr title  "# of devices served on rac arriavall, vector"
vector 106  CAIN.eNodeB.nic.mac  DistanceSignal:vector  ETV
attr interpolationmode  none
attr title  "Distance to enb, vector"
vector 101  CAIN.eNodeB.nic.mac  CainHopMessage:vector  ETV
attr interpolationmode  none
attr title  "eNB received CAIN hop message, vector"
vector 98  CAIN.eNodeB.nic.mac  sentPacketToLowerLayer:vector(packetBytes)  ETV
attr interpolationmode  none
attr source  sentPacketToLowerLayer
vector 249  CAIN.ueD2DTx[1].nic.mac  DropedHopMessage:vector  ETV
attr interpolationmode  none
attr title  "Droped Hop CAIN message due to RB not available, vector"
vector 1517  CAIN.ueD2DTx[18].tcp  tcpRcvQueueBytes  ETV
vector 1504  CAIN.ueD2DTx[18].tcp  "advertised window"  ETV
vector 1503  CAIN.ueD2DTx[18].tcp  "receive window"  ETV
vector 1506  CAIN.ueD2DTx[18].tcp  "sent ack"  ETV
vector 781  CAIN.ueD2DTx[18].nic.pdcpRrc  receivedPacketFromUpperLayer:vector(packetBytes)  ETV
attr interpolationmode  none
attr source  receivedPacketFromUpperLayer
vector 784  CAIN.ueD2DTx[18].nic.pdcpRrc  sentPacketToLowerLayer:vector(packetBytes)  ETV
attr interpolationmode  none
attr source  sentPacketToLowerLayer
vector 785  CAIN.ueD2DTx[18].nic.mac  receivedPacketFromUpperLayer:vector(packetBytes)  ETV
attr interpolationmode  none
attr source  receivedPacketFromUpperLayer
vector 795  CAIN.ueD2DTx[18].nic.mac  CainHopMessageSent:vector  ETV
attr interpolationmode  none
attr title  "# of Sent CAIN hop message, vector"
vector 788  CAIN.ueD2DTx[18].nic.mac  sentPacketToLowerLayer:vector(packetBytes)  ETV
attr interpolationmode  none
attr source  sentPacketToLowerLayer
vector 1541  CAIN.ueD2DTx[6].tcp  tcpRcvQueueBytes  ETV
vector 1528  CAIN.ueD2DTx[6].tcp  "advertised window"  ETV
vector 1527  CAIN.ueD2DTx[6].tcp  "receive window"  ETV
vector 1530  CAIN.ueD2DTx[6].tcp  "sent ack"  ETV
vector 397  CAIN.ueD2DTx[6].nic.pdcpRrc  receivedPacketFromUpperLayer:vector(packetBytes)  ETV
attr interpolationmode  none
attr source  receivedPacketFromUpperLayer
vector 400  CAIN.ueD2DTx[6].nic.pdcpRrc  sentPacketToLowerLayer:vector(packetBytes)  ETV
attr interpolationmode  none
attr source  sentPacketToLowerLayer
vector 401  CAIN.ueD2DTx[6].nic.mac  receivedPacketFromUpperLayer:vector(packetBytes)  ETV
attr interpolationmode  none
attr source  receivedPacketFromUpperLayer
vector 410  CAIN.ueD2DTx[6].nic.mac  CainMessageSent:vector  ETV
attr interpolationmode  none
attr title  "# of Sent CAIN message, vector"
vector 404  CAIN.ueD2DTx[6].nic.mac  sentPacketToLowerLayer:vector(packetBytes)  ETV
attr interpolationmode  none
attr source  sentPacketToLowerLayer
vector 1565  CAIN.ueD2DTx[14].tcp  tcpRcvQueueBytes  ETV
vector 1552  CAIN.ueD2DTx[14].tcp  "advertised window"  ETV
vector 1551  CAIN.ueD2DTx[14].tcp  "receive window"  ETV
vector 1554  CAIN.ueD2DTx[14].tcp  "sent ack"  ETV
vector 653  CAIN.ueD2DTx[14].nic.pdcpRrc  receivedPacketFromUpperLayer:vector(packetBytes)  ETV
attr interpolationmode  none
attr source  receivedPacketFromUpperLayer
vector 656  CAIN.ueD2DTx[14].nic.pdcpRrc  sentPacketToLowerLayer:vector(packetBytes)  ETV
attr interpolationmode  none
attr source  sentPacketToLowerLayer
vector 657  CAIN.ueD2DTx[14].nic.mac  receivedPacketFromUpperLayer:vector(packetBytes)  ETV
attr interpolationmode  none
attr source  receivedPacketFromUpperLayer
vector 667  CAIN.ueD2DTx[14].nic.mac  CainHopMessageSent:vector  ETV
attr interpolationmode  none
attr title  "# of Sent CAIN hop message, vector"
vector 660  CAIN.ueD2DTx[14].nic.mac  sentPacketToLowerLayer:vector(packetBytes)  ETV
attr interpolationmode  none
attr source  sentPacketToLowerLayer
vector 530  CAIN.ueD2DTx[10].nic.mac  receivedPacketFromLowerLayer:vector(packetBytes)  ETV
attr interpolationmode  none
attr source  receivedPacketFromLowerLayer
vector 532  CAIN.ueD2DTx[10].nic.mac  sentPacketToLowerLayer:vector(packetBytes)  ETV
attr interpolationmode  none
attr source  sentPacketToLowerLayer
vector 1589  CAIN.ueD2DTx[12].tcp  tcpRcvQueueBytes  ETV
vector 1576  CAIN.ueD2DTx[12].tcp  "advertised window"  ETV
vector 1575  CAIN.ueD2DTx[12].tcp  "receive window"  ETV
vector 1578  CAIN.ueD2DTx[12].tcp  "sent ack"  ETV
vector 589  CAIN.ueD2DTx[12].nic.pdcpRrc  receivedPacketFromUpperLayer:vector(packetBytes)  ETV
attr interpolationmode  none
attr source  receivedPacketFromUpperLayer
vector 592  CAIN.ueD2DTx[12].nic.pdcpRrc  sentPacketToLowerLayer:vector(packetBytes)  ETV
attr interpolationmode  none
attr source  sentPacketToLowerLayer
vector 593  CAIN.ueD2DTx[12].nic.mac  receivedPacketFromUpperLayer:vector(packetBytes)  ETV
attr interpolationmode  none
attr source  receivedPacketFromUpperLayer
vector 603  CAIN.ueD2DTx[12].nic.mac  CainHopMessageSent:vector  ETV
attr interpolationmode  none
attr title  "# of Sent CAIN hop message, vector"
vector 596  CAIN.ueD2DTx[12].nic.mac  sentPacketToLowerLayer:vector(packetBytes)  ETV
attr interpolationmode  none
attr source  sentPacketToLowerLayer
vector 100  CAIN.eNodeB.nic.mac  CainMessage:vector  ETV
attr interpolationmode  none
attr title  "eNB received CAIN message, vector"
vector 536  CAIN.ueD2DTx[10].nic.mac  DropedCainMessage:vector  ETV
attr interpolationmode  none
attr title  "Droped CAIN message due to RB not available, vector"
vector 1613  CAIN.ueD2DTx[2].tcp  tcpRcvQueueBytes  ETV
vector 1600  CAIN.ueD2DTx[2].tcp  "advertised window"  ETV
vector 1599  CAIN.ueD2DTx[2].tcp  "receive window"  ETV
vector 1602  CAIN.ueD2DTx[2].tcp  "sent ack"  ETV
vector 269  CAIN.ueD2DTx[2].nic.pdcpRrc  receivedPacketFromUpperLayer:vector(packetBytes)  ETV
attr interpolationmode  none
attr source  receivedPacketFromUpperLayer
vector 272  CAIN.ueD2DTx[2].nic.pdcpRrc  sentPacketToLowerLayer:vector(packetBytes)  ETV
attr interpolationmode  none
attr source  sentPacketToLowerLayer
vector 273  CAIN.ueD2DTx[2].nic.mac  receivedPacketFromUpperLayer:vector(packetBytes)  ETV
attr interpolationmode  none
attr source  receivedPacketFromUpperLayer
vector 276  CAIN.ueD2DTx[2].nic.mac  sentPacketToLowerLayer:vector(packetBytes)  ETV
attr interpolationmode  none
attr source  sentPacketToLowerLayer
vector 1637  CAIN.ueD2DTx[15].tcp  tcpRcvQueueBytes  ETV
vector 1624  CAIN.ueD2DTx[15].tcp  "advertised window"  ETV
vector 1623  CAIN.ueD2DTx[15].tcp  "receive window"  ETV
vector 1626  CAIN.ueD2DTx[15].tcp  "sent ack"  ETV
vector 685  CAIN.ueD2DTx[15].nic.pdcpRrc  receivedPacketFromUpperLayer:vector(packetBytes)  ETV
attr interpolationmode  none
attr source  receivedPacketFromUpperLayer
vector 688  CAIN.ueD2DTx[15].nic.pdcpRrc  sentPacketToLowerLayer:vector(packetBytes)  ETV
attr interpolationmode  none
attr source  sentPacketToLowerLayer
vector 689  CAIN.ueD2DTx[15].nic.mac  receivedPacketFromUpperLayer:vector(packetBytes)  ETV
attr interpolationmode  none
attr source  receivedPacketFromUpperLayer
vector 699  CAIN.ueD2DTx[15].nic.mac  CainHopMessageSent:vector  ETV
attr interpolationmode  none
attr title  "# of Sent CAIN hop message, vector"
vector 692  CAIN.ueD2DTx[15].nic.mac  sentPacketToLowerLayer:vector(packetBytes)  ETV
attr interpolationmode  none
attr source  sentPacketToLowerLayer
vector 274  CAIN.ueD2DTx[2].nic.mac  receivedPacketFromLowerLayer:vector(packetBytes)  ETV
attr interpolationmode  none
attr source  receivedPacketFromLowerLayer
vector 1661  CAIN.ueD2DTx[3].tcp  tcpRcvQueueBytes  ETV
vector 1648  CAIN.ueD2DTx[3].tcp  "advertised window"  ETV
vector 1647  CAIN.ueD2DTx[3].tcp  "receive window"  ETV
vector 1650  CAIN.ueD2DTx[3].tcp  "sent ack"  ETV
vector 301  CAIN.ueD2DTx[3].nic.pdcpRrc  receivedPacketFromUpperLayer:vector(packetBytes)  ETV
attr interpolationmode  none
attr source  receivedPacketFromUpperLayer
vector 304  CAIN.ueD2DTx[3].nic.pdcpRrc  sentPacketToLowerLayer:vector(packetBytes)  ETV
attr interpolationmode  none
attr source  sentPacketToLowerLayer
vector 305  CAIN.ueD2DTx[3].nic.mac  receivedPacketFromUpperLayer:vector(packetBytes)  ETV
attr interpolationmode  none
attr source  receivedPacketFromUpperLayer
vector 275  CAIN.ueD2DTx[2].nic.mac  sentPacketToUpperLayer:vector(packetBytes)  ETV
attr interpolationmode  none
attr source  sentPacketToUpperLayer
vector 315  CAIN.ueD2DTx[3].nic.mac  CainHopMessageSent:vector  ETV
attr interpolationmode  none
attr title  "# of Sent CAIN hop message, vector"
vector 308  CAIN.ueD2DTx[3].nic.mac  sentPacketToLowerLayer:vector(packetBytes)  ETV
attr interpolationmode  none
attr source  sentPacketToLowerLayer
vector 1685  CAIN.ueD2DTx[8].tcp  tcpRcvQueueBytes  ETV
vector 1672  CAIN.ueD2DTx[8].tcp  "advertised window"  ETV
vector 1671  CAIN.ueD2DTx[8].tcp  "receive window"  ETV
vector 1674  CAIN.ueD2DTx[8].tcp  "sent ack"  ETV
vector 461  CAIN.ueD2DTx[8].nic.pdcpRrc  receivedPacketFromUpperLayer:vector(packetBytes)  ETV
attr interpolationmode  none
attr source  receivedPacketFromUpperLayer
vector 464  CAIN.ueD2DTx[8].nic.pdcpRrc  sentPacketToLowerLayer:vector(packetBytes)  ETV
attr interpolationmode  none
attr source  sentPacketToLowerLayer
vector 465  CAIN.ueD2DTx[8].nic.mac  receivedPacketFromUpperLayer:vector(packetBytes)  ETV
attr interpolationmode  none
attr source  receivedPacketFromUpperLayer
vector 474  CAIN.ueD2DTx[8].nic.mac  CainMessageSent:vector  ETV
attr interpolationmode  none
attr title  "# of Sent CAIN message, vector"
vector 468  CAIN.ueD2DTx[8].nic.mac  sentPacketToLowerLayer:vector(packetBytes)  ETV
attr interpolationmode  none
attr source  sentPacketToLowerLayer
vector 1709  CAIN.ueD2DTx[23].tcp  tcpRcvQueueBytes  ETV
vector 1696  CAIN.ueD2DTx[23].tcp  "advertised window"  ETV
vector 1695  CAIN.ueD2DTx[23].tcp  "receive window"  ETV
vector 1698  CAIN.ueD2DTx[23].tcp  "sent ack"  ETV
vector 941  CAIN.ueD2DTx[23].nic.pdcpRrc  receivedPacketFromUpperLayer:vector(packetBytes)  ETV
attr interpolationmode  none
attr source  receivedPacketFromUpperLayer
vector 944  CAIN.ueD2DTx[23].nic.pdcpRrc  sentPacketToLowerLayer:vector(packetBytes)  ETV
attr interpolationmode  none
attr source  sentPacketToLowerLayer
vector 945  CAIN.ueD2DTx[23].nic.mac  receivedPacketFromUpperLayer:vector(packetBytes)  ETV
attr interpolationmode  none
attr source  receivedPacketFromUpperLayer
vector 954  CAIN.ueD2DTx[23].nic.mac  CainMessageSent:vector  ETV
attr interpolationmode  none
attr title  "# of Sent CAIN message, vector"
vector 948  CAIN.ueD2DTx[23].nic.mac  sentPacketToLowerLayer:vector(packetBytes)  ETV
attr interpolationmode  none
attr source  sentPacketToLowerLayer
vector 1733  CAIN.ueD2DTx[11].tcp  tcpRcvQueueBytes  ETV
vector 1720  CAIN.ueD2DTx[11].tcp  "advertised window"  ETV
vector 1719  CAIN.ueD2DTx[11].tcp  "receive window"  ETV
vector 1722  CAIN.ueD2DTx[11].tcp  "sent ack"  ETV
vector 557  CAIN.ueD2DTx[11].nic.pdcpRrc  receivedPacketFromUpperLayer:vector(packetBytes)  ETV
attr interpolationmode  none
attr source  receivedPacketFromUpperLayer
vector 560  CAIN.ueD2DTx[11].nic.pdcpRrc  sentPacketToLowerLayer:vector(packetBytes)  ETV
attr interpolationmode  none
attr source  sentPacketToLowerLayer
vector 561  CAIN.ueD2DTx[11].nic.mac  receivedPacketFromUpperLayer:vector(packetBytes)  ETV
attr interpolationmode  none
attr source  receivedPacketFromUpperLayer
vector 570  CAIN.ueD2DTx[11].nic.mac  CainMessageSent:vector  ETV
attr interpolationmode  none
attr title  "# of Sent CAIN message, vector"
vector 564  CAIN.ueD2DTx[11].nic.mac  sentPacketToLowerLayer:vector(packetBytes)  ETV
attr interpolationmode  none
attr source  sentPacketToLowerLayer
vector 1757  CAIN.ueD2DTx[7].tcp  tcpRcvQueueBytes  ETV
vector 1744  CAIN.ueD2DTx[7].tcp  "advertised window"  ETV
vector 1743  CAIN.ueD2DTx[7].tcp  "receive window"  ETV
vector 1746  CAIN.ueD2DTx[7].tcp  "sent ack"  ETV
vector 429  CAIN.ueD2DTx[7].nic.pdcpRrc  receivedPacketFromUpperLayer:vector(packetBytes)  ETV
attr interpolationmode  none
attr source  receivedPacketFromUpperLayer
vector 432  CAIN.ueD2DTx[7].nic.pdcpRrc  sentPacketToLowerLayer:vector(packetBytes)  ETV
attr interpolationmode  none
attr source  sentPacketToLowerLayer
vector 433  CAIN.ueD2DTx[7].nic.mac  receivedPacketFromUpperLayer:vector(packetBytes)  ETV
attr interpolationmode  none
attr source  receivedPacketFromUpperLayer
vector 442  CAIN.ueD2DTx[7].nic.mac  CainMessageSent:vector  ETV
attr interpolationmode  none
attr title  "# of Sent CAIN message, vector"
vector 436  CAIN.ueD2DTx[7].nic.mac  sentPacketToLowerLayer:vector(packetBytes)  ETV
attr interpolationmode  none
attr source  sentPacketToLowerLayer
vector 1461  CAIN.eNodeB1.sctp  "SendQueue of Association 5"  ETV
vector 1225  CAIN.eNodeB1.sctp  "TSN Sent 5:10.0.5.1"  ETV
vector 1232  CAIN.eNodeB1.sctp  "Outstanding Bytes 5:10.0.5.1"  ETV
vector 1030  CAIN.eNodeB1.sctp  "Outstanding Bytes 4:Total"  ETV
vector 1231  CAIN.eNodeB1.sctp  "Queued Sent Bytes 5:10.0.5.1"  ETV
vector 1029  CAIN.eNodeB1.sctp  "Queued Sent Bytes 4:Total"  ETV
vector 1074  CAIN.eNodeB.sctp  "TSN Received 1:10.0.5.2"  ETV
vector 1050  CAIN.eNodeB.sctp  "Queued Received Bytes 1:Total"  ETV
vector 1046  CAIN.eNodeB.sctp  "Advertised Receiver Window 1"  ETV
vector 1055  CAIN.eNodeB.sctp  "Number of Total Gap Blocks Stored 1"  ETV
vector 1056  CAIN.eNodeB.sctp  "Number of Revokable Gap Blocks Stored 1"  ETV
vector 1057  CAIN.eNodeB.sctp  "Number of Non-Revokable Gap Blocks Stored 1"  ETV
vector 1058  CAIN.eNodeB.sctp  "Number of Duplicate TSNs Stored 1"  ETV
vector 1062  CAIN.eNodeB.sctp  "Length of SACK Sent 1"  ETV
vector 1059  CAIN.eNodeB.sctp  "Number of Revokable Gap Blocks Sent 1"  ETV
vector 1060  CAIN.eNodeB.sctp  "Number of Non-Revokable Gap Blocks Sent 1"  ETV
vector 1061  CAIN.eNodeB.sctp  "Number of Duplicate TSNs Sent 1"  ETV
vector 1066  CAIN.eNodeB.sctp  "End to End Delay of Association 1"  ETV
vector 141  CAIN.eNodeB.x2App[0].client  rcvdPk:vector(packetBytes)  ETV
attr interpolationmode  none
attr source  rcvdPk
attr title  "packets received, vector(packetBytes)"
vector 1460  CAIN.eNodeB1.sctp  "Number of Gap Blocks in Last SACK of Association 5"  ETV
vector 1031  CAIN.eNodeB1.sctp  "Number of Revokable Gap Blocks in SACK 4"  ETV
vector 1032  CAIN.eNodeB1.sctp  "Number of Non-Revokable Gap Blocks in SACK 4"  ETV
vector 1242  CAIN.eNodeB1.sctp  "TSN Acked CumAck 5:10.0.5.1"  ETV
vector 1208  CAIN.eNodeB1.sctp  "Number of Gap Acked Chunks in Last SACK 5:10.0.2.2"  ETV
vector 1209  CAIN.eNodeB1.sctp  "Number of Non-Revokable Gap Acked Chunks in Last SACK 5:10.0.2.2"  ETV
vector 1210  CAIN.eNodeB1.sctp  "Number of Gap Missed Chunks in Last SACK 5:10.0.2.2"  ETV
vector 1181  CAIN.eNodeB1.sctp  "Number of Gap Acked Chunks in Last SACK 5:10.0.4.1"  ETV
vector 1182  CAIN.eNodeB1.sctp  "Number of Non-Revokable Gap Acked Chunks in Last SACK 5:10.0.4.1"  ETV
vector 1183  CAIN.eNodeB1.sctp  "Number of Gap Missed Chunks in Last SACK 5:10.0.4.1"  ETV
vector 1235  CAIN.eNodeB1.sctp  "Number of Gap Acked Chunks in Last SACK 5:10.0.5.1"  ETV
vector 1236  CAIN.eNodeB1.sctp  "Number of Non-Revokable Gap Acked Chunks in Last SACK 5:10.0.5.1"  ETV
vector 1237  CAIN.eNodeB1.sctp  "Number of Gap Missed Chunks in Last SACK 5:10.0.5.1"  ETV
vector 1041  CAIN.eNodeB1.sctp  "Arwnd in Last SACK 4"  ETV
vector 1244  CAIN.eNodeB1.sctp  "TSN PseudoCumAck 5:10.0.5.1"  ETV
vector 1245  CAIN.eNodeB1.sctp  "TSN RTXPseudoCumAck 5:10.0.5.1"  ETV
vector 1238  CAIN.eNodeB1.sctp  "Partial Bytes Acked 5:10.0.5.1"  ETV
vector 1781  CAIN.ueD2DTx[24].tcp  tcpRcvQueueBytes  ETV
vector 1768  CAIN.ueD2DTx[24].tcp  "advertised window"  ETV
vector 1767  CAIN.ueD2DTx[24].tcp  "receive window"  ETV
vector 1770  CAIN.ueD2DTx[24].tcp  "sent ack"  ETV
vector 973  CAIN.ueD2DTx[24].nic.pdcpRrc  receivedPacketFromUpperLayer:vector(packetBytes)  ETV
attr interpolationmode  none
attr source  receivedPacketFromUpperLayer
vector 976  CAIN.ueD2DTx[24].nic.pdcpRrc  sentPacketToLowerLayer:vector(packetBytes)  ETV
attr interpolationmode  none
attr source  sentPacketToLowerLayer
vector 977  CAIN.ueD2DTx[24].nic.mac  receivedPacketFromUpperLayer:vector(packetBytes)  ETV
attr interpolationmode  none
attr source  receivedPacketFromUpperLayer
vector 1805  CAIN.ueD2DTx[4].tcp  tcpRcvQueueBytes  ETV
vector 1792  CAIN.ueD2DTx[4].tcp  "advertised window"  ETV
vector 1791  CAIN.ueD2DTx[4].tcp  "receive window"  ETV
vector 1794  CAIN.ueD2DTx[4].tcp  "sent ack"  ETV
vector 333  CAIN.ueD2DTx[4].nic.pdcpRrc  receivedPacketFromUpperLayer:vector(packetBytes)  ETV
attr interpolationmode  none
attr source  receivedPacketFromUpperLayer
vector 336  CAIN.ueD2DTx[4].nic.pdcpRrc  sentPacketToLowerLayer:vector(packetBytes)  ETV
attr interpolationmode  none
attr source  sentPacketToLowerLayer
vector 337  CAIN.ueD2DTx[4].nic.mac  receivedPacketFromUpperLayer:vector(packetBytes)  ETV
attr interpolationmode  none
attr source  receivedPacketFromUpperLayer
vector 347  CAIN.ueD2DTx[4].nic.mac  CainHopMessageSent:vector  ETV
attr interpolationmode  none
attr title  "# of Sent CAIN hop message, vector"
vector 340  CAIN.ueD2DTx[4].nic.mac  sentPacketToLowerLayer:vector(packetBytes)  ETV
attr interpolationmode  none
attr source  sentPacketToLowerLayer
vector 986  CAIN.ueD2DTx[24].nic.mac  CainMessageSent:vector  ETV
attr interpolationmode  none
attr title  "# of Sent CAIN message, vector"
vector 980  CAIN.ueD2DTx[24].nic.mac  sentPacketToLowerLayer:vector(packetBytes)  ETV
attr interpolationmode  none
attr source  sentPacketToLowerLayer
vector 154  CAIN.eNodeB1.nic.mac  receivedPacketFromLowerLayer:vector(packetBytes)  ETV
attr interpolationmode  none
attr source  receivedPacketFromLowerLayer
vector 1829  CAIN.ueD2DTx[16].tcp  tcpRcvQueueBytes  ETV
vector 1816  CAIN.ueD2DTx[16].tcp  "advertised window"  ETV
vector 1815  CAIN.ueD2DTx[16].tcp  "receive window"  ETV
vector 1818  CAIN.ueD2DTx[16].tcp  "sent ack"  ETV
vector 717  CAIN.ueD2DTx[16].nic.pdcpRrc  receivedPacketFromUpperLayer:vector(packetBytes)  ETV
attr interpolationmode  none
attr source  receivedPacketFromUpperLayer
vector 720  CAIN.ueD2DTx[16].nic.pdcpRrc  sentPacketToLowerLayer:vector(packetBytes)  ETV
attr interpolationmode  none
attr source  sentPacketToLowerLayer
vector 721  CAIN.ueD2DTx[16].nic.mac  receivedPacketFromUpperLayer:vector(packetBytes)  ETV
attr interpolationmode  none
attr source  receivedPacketFromUpperLayer
vector 724  CAIN.ueD2DTx[16].nic.mac  sentPacketToLowerLayer:vector(packetBytes)  ETV
attr interpolationmode  none
attr source  sentPacketToLowerLayer
vector 1853  CAIN.ueD2DTx[1].tcp  tcpRcvQueueBytes  ETV
vector 1840  CAIN.ueD2DTx[1].tcp  "advertised window"  ETV
vector 1839  CAIN.ueD2DTx[1].tcp  "receive window"  ETV
vector 1842  CAIN.ueD2DTx[1].tcp  "sent ack"  ETV
vector 237  CAIN.ueD2DTx[1].nic.pdcpRrc  receivedPacketFromUpperLayer:vector(packetBytes)  ETV
attr interpolationmode  none
attr source  receivedPacketFromUpperLayer
vector 240  CAIN.ueD2DTx[1].nic.pdcpRrc  sentPacketToLowerLayer:vector(packetBytes)  ETV
attr interpolationmode  none
attr source  sentPacketToLowerLayer
vector 241  CAIN.ueD2DTx[1].nic.mac  receivedPacketFromUpperLayer:vector(packetBytes)  ETV
attr interpolationmode  none
attr source  receivedPacketFromUpperLayer
vector 169  CAIN.eNodeB1.nic.mac  racpkt:vector  ETV
attr interpolationmode  none
attr title  "eNB received racpkt message, vector"
vector 170  CAIN.eNodeB1.nic.mac  racDistanceSignal:vector  ETV
attr interpolationmode  none
attr title  "Rac distance to enb, vector"
vector 171  CAIN.eNodeB1.nic.mac  racServedDevsSignal:vector  ETV
attr interpolationmode  none
attr title  "# of devices served on rac arriavall, vector"
vector 156  CAIN.eNodeB1.nic.mac  sentPacketToLowerLayer:vector(packetBytes)  ETV
attr interpolationmode  none
attr source  sentPacketToLowerLayer
vector 722  CAIN.ueD2DTx[16].nic.mac  receivedPacketFromLowerLayer:vector(packetBytes)  ETV
attr interpolationmode  none
attr source  receivedPacketFromLowerLayer
vector 243  CAIN.ueD2DTx[1].nic.mac  sentPacketToUpperLayer:vector(packetBytes)  ETV
attr interpolationmode  none
attr source  sentPacketToUpperLayer
vector 1877  CAIN.ueD2DTx[20].tcp  tcpRcvQueueBytes  ETV
vector 1864  CAIN.ueD2DTx[20].tcp  "advertised window"  ETV
vector 1863  CAIN.ueD2DTx[20].tcp  "receive window"  ETV
vector 1866  CAIN.ueD2DTx[20].tcp  "sent ack"  ETV
vector 845  CAIN.ueD2DTx[20].nic.pdcpRrc  receivedPacketFromUpperLayer:vector(packetBytes)  ETV
attr interpolationmode  none
attr source  receivedPacketFromUpperLayer
vector 848  CAIN.ueD2DTx[20].nic.pdcpRrc  sentPacketToLowerLayer:vector(packetBytes)  ETV
attr interpolationmode  none
attr source  sentPacketToLowerLayer
vector 849  CAIN.ueD2DTx[20].nic.mac  receivedPacketFromUpperLayer:vector(packetBytes)  ETV
attr interpolationmode  none
attr source  receivedPacketFromUpperLayer
vector 852  CAIN.ueD2DTx[20].nic.mac  sentPacketToLowerLayer:vector(packetBytes)  ETV
attr interpolationmode  none
attr source  sentPacketToLowerLayer
vector 850  CAIN.ueD2DTx[20].nic.mac  receivedPacketFromLowerLayer:vector(packetBytes)  ETV
attr interpolationmode  none
attr source  receivedPacketFromLowerLayer
vector 851  CAIN.ueD2DTx[20].nic.mac  sentPacketToUpperLayer:vector(packetBytes)  ETV
attr interpolationmode  none
attr source  sentPacketToUpperLayer
vector 1901  CAIN.ueD2DTx[21].tcp  tcpRcvQueueBytes  ETV
vector 1888  CAIN.ueD2DTx[21].tcp  "advertised window"  ETV
vector 1887  CAIN.ueD2DTx[21].tcp  "receive window"  ETV
vector 1890  CAIN.ueD2DTx[21].tcp  "sent ack"  ETV
vector 877  CAIN.ueD2DTx[21].nic.pdcpRrc  receivedPacketFromUpperLayer:vector(packetBytes)  ETV
attr interpolationmode  none
attr source  receivedPacketFromUpperLayer
vector 880  CAIN.ueD2DTx[21].nic.pdcpRrc  sentPacketToLowerLayer:vector(packetBytes)  ETV
attr interpolationmode  none
attr source  sentPacketToLowerLayer
vector 881  CAIN.ueD2DTx[21].nic.mac  receivedPacketFromUpperLayer:vector(packetBytes)  ETV
attr interpolationmode  none
attr source  receivedPacketFromUpperLayer
vector 884  CAIN.ueD2DTx[21].nic.mac  sentPacketToLowerLayer:vector(packetBytes)  ETV
attr interpolationmode  none
attr source  sentPacketToLowerLayer
vector 882  CAIN.ueD2DTx[21].nic.mac  receivedPacketFromLowerLayer:vector(packetBytes)  ETV
attr interpolationmode  none
attr source  receivedPacketFromLowerLayer
vector 1925  CAIN.ueD2DTx[9].tcp  tcpRcvQueueBytes  ETV
vector 1912  CAIN.ueD2DTx[9].tcp  "advertised window"  ETV
vector 1911  CAIN.ueD2DTx[9].tcp  "receive window"  ETV
vector 1914  CAIN.ueD2DTx[9].tcp  "sent ack"  ETV
vector 493  CAIN.ueD2DTx[9].nic.pdcpRrc  receivedPacketFromUpperLayer:vector(packetBytes)  ETV
attr interpolationmode  none
attr source  receivedPacketFromUpperLayer
vector 496  CAIN.ueD2DTx[9].nic.pdcpRrc  sentPacketToLowerLayer:vector(packetBytes)  ETV
attr interpolationmode  none
attr source  sentPacketToLowerLayer
vector 497  CAIN.ueD2DTx[9].nic.mac  receivedPacketFromUpperLayer:vector(packetBytes)  ETV
attr interpolationmode  none
attr source  receivedPacketFromUpperLayer
vector 506  CAIN.ueD2DTx[9].nic.mac  CainMessageSent:vector  ETV
attr interpolationmode  none
attr title  "# of Sent CAIN message, vector"
vector 500  CAIN.ueD2DTx[9].nic.mac  sentPacketToLowerLayer:vector(packetBytes)  ETV
attr interpolationmode  none
attr source  sentPacketToLowerLayer
vector 883  CAIN.ueD2DTx[21].nic.mac  sentPacketToUpperLayer:vector(packetBytes)  ETV
attr interpolationmode  none
attr source  sentPacketToUpperLayer
vector 1949  CAIN.ueD2DTx[10].tcp  tcpRcvQueueBytes  ETV
vector 1936  CAIN.ueD2DTx[10].tcp  "advertised window"  ETV
vector 1935  CAIN.ueD2DTx[10].tcp  "receive window"  ETV
vector 1938  CAIN.ueD2DTx[10].tcp  "sent ack"  ETV
vector 525  CAIN.ueD2DTx[10].nic.pdcpRrc  receivedPacketFromUpperLayer:vector(packetBytes)  ETV
attr interpolationmode  none
attr source  receivedPacketFromUpperLayer
vector 528  CAIN.ueD2DTx[10].nic.pdcpRrc  sentPacketToLowerLayer:vector(packetBytes)  ETV
attr interpolationmode  none
attr source  sentPacketToLowerLayer
vector 529  CAIN.ueD2DTx[10].nic.mac  receivedPacketFromUpperLayer:vector(packetBytes)  ETV
attr interpolationmode  none
attr source  receivedPacketFromUpperLayer
vector 1973  CAIN.ueD2DTx[17].tcp  tcpRcvQueueBytes  ETV
vector 1960  CAIN.ueD2DTx[17].tcp  "advertised window"  ETV
vector 1959  CAIN.ueD2DTx[17].tcp  "receive window"  ETV
vector 1962  CAIN.ueD2DTx[17].tcp  "sent ack"  ETV
vector 749  CAIN.ueD2DTx[17].nic.pdcpRrc  receivedPacketFromUpperLayer:vector(packetBytes)  ETV
attr interpolationmode  none
attr source  receivedPacketFromUpperLayer
vector 752  CAIN.ueD2DTx[17].nic.pdcpRrc  sentPacketToLowerLayer:vector(packetBytes)  ETV
attr interpolationmode  none
attr source  sentPacketToLowerLayer
vector 753  CAIN.ueD2DTx[17].nic.mac  receivedPacketFromUpperLayer:vector(packetBytes)  ETV
attr interpolationmode  none
attr source  receivedPacketFromUpperLayer
vector 1997  CAIN.ueD2DTx[0].tcp  tcpRcvQueueBytes  ETV
vector 1984  CAIN.ueD2DTx[0].tcp  "advertised window"  ETV
vector 1983  CAIN.ueD2DTx[0].tcp  "receive window"  ETV
vector 1986  CAIN.ueD2DTx[0].tcp  "sent ack"  ETV
vector 205  CAIN.ueD2DTx[0].nic.pdcpRrc  receivedPacketFromUpperLayer:vector(packetBytes)  ETV
attr interpolationmode  none
attr source  receivedPacketFromUpperLayer
vector 208  CAIN.ueD2DTx[0].nic.pdcpRrc  sentPacketToLowerLayer:vector(packetBytes)  ETV
attr interpolationmode  none
attr source  sentPacketToLowerLayer
vector 209  CAIN.ueD2DTx[0].nic.mac  receivedPacketFromUpperLayer:vector(packetBytes)  ETV
attr interpolationmode  none
attr source  receivedPacketFromUpperLayer
vector 212  CAIN.ueD2DTx[0].nic.mac  sentPacketToLowerLayer:vector(packetBytes)  ETV
attr interpolationmode  none
attr source  sentPacketToLowerLayer
vector 756  CAIN.ueD2DTx[17].nic.mac  sentPacketToLowerLayer:vector(packetBytes)  ETV
attr interpolationmode  none
attr source  sentPacketToLowerLayer
vector 210  CAIN.ueD2DTx[0].nic.mac  receivedPacketFromLowerLayer:vector(packetBytes)  ETV
attr interpolationmode  none
attr source  receivedPacketFromLowerLayer
vector 754  CAIN.ueD2DTx[17].nic.mac  receivedPacketFromLowerLayer:vector(packetBytes)  ETV
attr interpolationmode  none
attr source  receivedPacketFromLowerLayer
vector 115  CAIN.eNodeB.nic.phy  averageCqiUlvect:vector  ETV
attr source  averageCqiUlvect
attr title  "Average Cqi reported in UL, vector"
attr unit  cqi
vector 2021  CAIN.ueD2DTx[19].tcp  tcpRcvQueueBytes  ETV
vector 2008  CAIN.ueD2DTx[19].tcp  "advertised window"  ETV
vector 2007  CAIN.ueD2DTx[19].tcp  "receive window"  ETV
vector 2010  CAIN.ueD2DTx[19].tcp  "sent ack"  ETV
vector 813  CAIN.ueD2DTx[19].nic.pdcpRrc  receivedPacketFromUpperLayer:vector(packetBytes)  ETV
attr interpolationmode  none
attr source  receivedPacketFromUpperLayer
vector 816  CAIN.ueD2DTx[19].nic.pdcpRrc  sentPacketToLowerLayer:vector(packetBytes)  ETV
attr interpolationmode  none
attr source  sentPacketToLowerLayer
vector 817  CAIN.ueD2DTx[19].nic.mac  receivedPacketFromUpperLayer:vector(packetBytes)  ETV
attr interpolationmode  none
attr source  receivedPacketFromUpperLayer
vector 2045  CAIN.ueD2DTx[5].tcp  tcpRcvQueueBytes  ETV
vector 2032  CAIN.ueD2DTx[5].tcp  "advertised window"  ETV
vector 2031  CAIN.ueD2DTx[5].tcp  "receive window"  ETV
vector 2034  CAIN.ueD2DTx[5].tcp  "sent ack"  ETV
vector 365  CAIN.ueD2DTx[5].nic.pdcpRrc  receivedPacketFromUpperLayer:vector(packetBytes)  ETV
attr interpolationmode  none
attr source  receivedPacketFromUpperLayer
vector 368  CAIN.ueD2DTx[5].nic.pdcpRrc  sentPacketToLowerLayer:vector(packetBytes)  ETV
attr interpolationmode  none
attr source  sentPacketToLowerLayer
vector 369  CAIN.ueD2DTx[5].nic.mac  receivedPacketFromUpperLayer:vector(packetBytes)  ETV
attr interpolationmode  none
attr source  receivedPacketFromUpperLayer
vector 372  CAIN.ueD2DTx[5].nic.mac  sentPacketToLowerLayer:vector(packetBytes)  ETV
attr interpolationmode  none
attr source  sentPacketToLowerLayer
vector 827  CAIN.ueD2DTx[19].nic.mac  CainHopMessageSent:vector  ETV
attr interpolationmode  none
attr title  "# of Sent CAIN hop message, vector"
vector 2069  CAIN.ueD2DTx[22].tcp  tcpRcvQueueBytes  ETV
vector 2056  CAIN.ueD2DTx[22].tcp  "advertised window"  ETV
vector 2055  CAIN.ueD2DTx[22].tcp  "receive window"  ETV
vector 2058  CAIN.ueD2DTx[22].tcp  "sent ack"  ETV
vector 909  CAIN.ueD2DTx[22].nic.pdcpRrc  receivedPacketFromUpperLayer:vector(packetBytes)  ETV
attr interpolationmode  none
attr source  receivedPacketFromUpperLayer
vector 912  CAIN.ueD2DTx[22].nic.pdcpRrc  sentPacketToLowerLayer:vector(packetBytes)  ETV
attr interpolationmode  none
attr source  sentPacketToLowerLayer
vector 913  CAIN.ueD2DTx[22].nic.mac  receivedPacketFromUpperLayer:vector(packetBytes)  ETV
attr interpolationmode  none
attr source  receivedPacketFromUpperLayer
vector 916  CAIN.ueD2DTx[22].nic.mac  sentPacketToLowerLayer:vector(packetBytes)  ETV
attr interpolationmode  none
attr source  sentPacketToLowerLayer
vector 370  CAIN.ueD2DTx[5].nic.mac  receivedPacketFromLowerLayer:vector(packetBytes)  ETV
attr interpolationmode  none
attr source  receivedPacketFromLowerLayer
vector 914  CAIN.ueD2DTx[22].nic.mac  receivedPacketFromLowerLayer:vector(packetBytes)  ETV
attr interpolationmode  none
attr source  receivedPacketFromLowerLayer
vector 109  CAIN.eNodeB.nic.mac  ServedHopDevs:vector  ETV
attr interpolationmode  none
attr title  "# of devices served on hop forwarding, vector"
vector 915  CAIN.ueD2DTx[22].nic.mac  sentPacketToUpperLayer:vector(packetBytes)  ETV
attr interpolationmode  none
attr source  sentPacketToUpperLayer
vector 218  CAIN.ueD2DTx[0].nic.mac  CainMessageSent:vector  ETV
attr interpolationmode  none
attr title  "# of Sent CAIN message, vector"
vector 108  CAIN.eNodeB.nic.mac  ServedDevs:vector  ETV
attr interpolationmode  none
attr title  "# of devices served on cain forwarding, vector"
vector 978  CAIN.ueD2DTx[24].nic.mac  receivedPacketFromLowerLayer:vector(packetBytes)  ETV
attr interpolationmode  none
attr source  receivedPacketFromLowerLayer
vector 626  CAIN.ueD2DTx[13].nic.mac  receivedPacketFromLowerLayer:vector(packetBytes)  ETV
attr interpolationmode  none
attr source  receivedPacketFromLowerLayer
vector 627  CAIN.ueD2DTx[13].nic.mac  sentPacketToUpperLayer:vector(packetBytes)  ETV
attr interpolationmode  none
attr source  sentPacketToUpperLayer
vector 786  CAIN.ueD2DTx[18].nic.mac  receivedPacketFromLowerLayer:vector(packetBytes)  ETV
attr interpolationmode  none
attr source  receivedPacketFromLowerLayer
vector 787  CAIN.ueD2DTx[18].nic.mac  sentPacketToUpperLayer:vector(packetBytes)  ETV
attr interpolationmode  none
attr source  sentPacketToUpperLayer
vector 658  CAIN.ueD2DTx[14].nic.mac  receivedPacketFromLowerLayer:vector(packetBytes)  ETV
attr interpolationmode  none
attr source  receivedPacketFromLowerLayer
vector 594  CAIN.ueD2DTx[12].nic.mac  receivedPacketFromLowerLayer:vector(packetBytes)  ETV
attr interpolationmode  none
attr source  receivedPacketFromLowerLayer
vector 659  CAIN.ueD2DTx[14].nic.mac  sentPacketToUpperLayer:vector(packetBytes)  ETV
attr interpolationmode  none
attr source  sentPacketToUpperLayer
vector 595  CAIN.ueD2DTx[12].nic.mac  sentPacketToUpperLayer:vector(packetBytes)  ETV
attr interpolationmode  none
attr source  sentPacketToUpperLayer
vector 690  CAIN.ueD2DTx[15].nic.mac  receivedPacketFromLowerLayer:vector(packetBytes)  ETV
attr interpolationmode  none
attr source  receivedPacketFromLowerLayer
vector 338  CAIN.ueD2DTx[4].nic.mac  receivedPacketFromLowerLayer:vector(packetBytes)  ETV
attr interpolationmode  none
attr source  receivedPacketFromLowerLayer
vector 691  CAIN.ueD2DTx[15].nic.mac  sentPacketToUpperLayer:vector(packetBytes)  ETV
attr interpolationmode  none
attr source  sentPacketToUpperLayer
vector 306  CAIN.ueD2DTx[3].nic.mac  receivedPacketFromLowerLayer:vector(packetBytes)  ETV
attr interpolationmode  none
attr source  receivedPacketFromLowerLayer
vector 723  CAIN.ueD2DTx[16].nic.mac  sentPacketToUpperLayer:vector(packetBytes)  ETV
attr interpolationmode  none
attr source  sentPacketToUpperLayer
vector 755  CAIN.ueD2DTx[17].nic.mac  sentPacketToUpperLayer:vector(packetBytes)  ETV
attr interpolationmode  none
attr source  sentPacketToUpperLayer
vector 371  CAIN.ueD2DTx[5].nic.mac  sentPacketToUpperLayer:vector(packetBytes)  ETV
attr interpolationmode  none
attr source  sentPacketToUpperLayer
1268	56540 24 175 175 0.0000001228 0.0000001228 1 0 0 0 0
1379	56564 28 260 260 0.0000006304 0.0000006304 1 65535 65535 65535 4294836225
1380	56592 27 260 260 0.0000006304 0.0000006304 1 8940 8940 8940 79923600
1381	56619 29 260 260 0.0000006304 0.0000006304 1 0.3725 0.3725 0.3725 0.13875625
1377	56648 24 260 260 0.0000006304 0.0000006304 1 3 3 3 9
1384	56672 24 260 260 0.0000006304 0.0000006304 1 1 1 1 1
1396	56696 24 188 188 0.0000003096 0.0000003096 1 0 0 0 0
1352	56720 28 260 260 0.0000006304 0.0000006304 1 65535 65535 65535 4294836225
1353	56748 27 260 260 0.0000006304 0.0000006304 1 8940 8940 8940 79923600
1354	56775 29 260 260 0.0000006304 0.0000006304 1 0.3725 0.3725 0.3725 0.13875625
1350	56804 24 260 260 0.0000006304 0.0000006304 1 3 3 3 9
1357	56828 24 260 260 0.0000006304 0.0000006304 1 1 1 1 1
1369	56852 24 188 188 0.0000003096 0.0000003096 1 0 0 0 0
1070	56876 28 260 260 0.0000006304 0.0000006304 1 65535 65535 65535 4294836225
1071	56904 27 260 260 0.0000006304 0.0000006304 1 8940 8940 8940 79923600
1072	56931 29 260 260 0.0000006304 0.0000006304 1 0.3725 0.3725 0.3725 0.13875625
1068	56960 48 260 327 0.0000006304 0.0000008564 2 1 3 4 10
1069	57008 31 327 327 0.0000008564 0.0000008564 1 2.26e-07 2.26e-07 2.26e-07 5.1076e-14
1074	57039 2600 4046 20025 0.0570000972 0.2570018716 90 2000 2089 184005 376258965
1077	59639 46 232 246 0.000000552 0.000000596 2 1 2 3 5
1076	59685 46 232 246 0.000000552 0.000000596 2 1 2 3 5
1078	59731 48 327 333 0.0000008564 0.0000009004 2 1 2 3 5
1087	59779 13 156 156 0 0 1 0 0 0 0
1046	59792 89 4046 35702 0.0570000972 0.4570018716 3 65533 65535 196603 12884246539
1050	59881 2410 4046 35702 0.0570000972 0.4570018716 93 0 160 182 25932
1055	62291 77 4046 35702 0.0570000972 0.4570018716 3 0 0 0 0
1056	62368 77 4046 35702 0.0570000972 0.4570018716 3 0 0 0 0
1057	62445 77 4046 35702 0.0570000972 0.4570018716 3 0 0 0 0
1058	62522 77 4046 35702 0.0570000972 0.4570018716 3 0 0 0 0
1059	62599 77 4046 35702 0.0570000972 0.4570018716 3 0 0 0 0
1060	62676 77 4046 35702 0.0570000972 0.4570018716 3 0 0 0 0
1061	62753 77 4046 35702 0.0570000972 0.4570018716 3 0 0 0 0
1062	62830 80 4046 35702 0.0570000972 0.4570018716 3 16 16 48 768
1064	62910 28 188 188 0.0000003096 0.0000003096 1 65535 65535 65535 4294836225
1066	62938 3129 4049 20106 0.0570000972 0.2570018716 90 9.72e-08 1.3612e-06 0.00011102 1.486951184e-10
1067	66067 13 156 156 0 0 1 0 0 0 0
1298	66080 27 203 203 0.000000458 0.000000458 1 65535 65535 65535 4294836225
1299	66107 26 203 203 0.000000458 0.000000458 1 8940 8940 8940 79923600
1300	66133 28 203 203 0.000000458 0.000000458 1 0.3725 0.3725 0.3725 0.13875625
1296	66161 23 203 203 0.000000458 0.000000458 1 3 3 3 9
1303	66184 23 203 203 0.000000458 0.000000458 1 1 1 1 1
1311	66207 76 735 31878 0.0070001912 0.4070019656 3 0 0 0 0
1312	66283 76 735 31878 0.0070001912 0.4070019656 3 0 0 0 0
1313	66359 76 735 31878 0.0070001912 0.4070019656 3 0 0 0 0
1315	66435 24 175 175 0.0000001228 0.0000001228 1 0 0 0 0
1271	66459 27 203 203 0.000000458 0.000000458 1 65535 65535 65535 4294836225
1272	66486 26 203 203 0.000000458 0.000000458 1 8940 8940 8940 79923600
1273	66512 28 203 203 0.000000458 0.000000458 1 0.3725 0.3725 0.3725 0.13875625
1269	66540 23 203 203 0.000000458 0.000000458 1 3 3 3 9
1276	66563 23 203 203 0.000000458 0.000000458 1 1 1 1 1
1284	66586 76 735 31878 0.0070001912 0.4070019656 3 0 0 0 0
1285	66662 76 735 31878 0.0070001912 0.4070019656 3 0 0 0 0
1286	66738 76 735 31878 0.0070001912 0.4070019656 3 0 0 0 0
1288	66814 24 175 175 0.0000001228 0.0000001228 1 0 0 0 0
1325	66838 57 203 92935 0.000000458 1.2070005104 2 65535 65535 131070 8589672450
1326	66895 55 203 92935 0.000000458 1.2070005104 2 8940 8940 17880 159847200
1327	66950 58 203 92935 0.000000458 1.2070005104 2 0.3725 23.84 24.2125 568.48435625
1323	67008 123 203 31878 0.000000458 0.4070019656 5 1 3 7 13
1324	67131 138 280 31878 0.0000006744 0.4070019656 4 1.912e-07 0.2000014552 0.400002182 0.080000709762303
1328	67269 2583 678 15822 0.007 0.2070005104 90 2000 2089 184005 376258965
1332	69852 48 298 312 0.0000007624 0.0000008064 2 1 2 3 5
1331	69900 48 298 312 0.0000007624 0.0000008064 2 1 2 3 5
1333	69948 48 280 290 0.0000006744 0.0000007184 2 1 2 3 5
1334	69996 4872 678 31878 0.007 0.4070019656 180 0 160 12964 1367400
1335	74868 4872 678 31878 0.007 0.4070019656 180 0 160 12964 1367400
1338	79740 76 735 31878 0.0070001912 0.4070019656 3 0 0 0 0
1339	79816 76 735 31878 0.0070001912 0.4070019656 3 0 0 0 0
1340	79892 76 735 31878 0.0070001912 0.4070019656 3 0 0 0 0
1341	79968 76 735 31878 0.0070001912 0.4070019656 3 0 0 0 0
1342	80044 24 175 175 0.0000001228 0.0000001228 1 0 0 0 0
1345	80068 85 735 31878 0.0070001912 0.4070019656 3 2000 2089 6098 12400002
1347	80153 76 735 31878 0.0070001912 0.4070019656 3 0 0 0 0
1348	80229 76 735 31878 0.0070001912 0.4070019656 3 0 0 0 0
1464	80305 76 735 31878 0.0070001912 0.4070019656 3 0 0 0 0
1465	80381 4064 678 15822 0.007 0.2070005104 180 0 80 6482 341850
1008	84445 4872 678 31878 0.007 0.4070019656 180 0 160 12964 1367400
1007	89317 4872 678 31878 0.007 0.4070019656 180 0 160 12964 1367400
1009	94189 76 735 31878 0.0070001912 0.4070019656 3 0 0 0 0
1010	94265 76 735 31878 0.0070001912 0.4070019656 3 0 0 0 0
1019	94341 88 735 31878 0.0070001912 0.4070019656 3 65533 65535 196603 12884246539
1020	94429 116 175 31878 0.0000001228 0.4070019656 4 65533 65535 262138 17179082764
1023	94545 13 148 148 0 0 1 0 0 0 0
1165	94558 24 174 174 0.0000001228 0.0000001228 1 0 0 0 0
1433	94582 28 261 261 0.0000006304 0.0000006304 1 65535 65535 65535 4294836225
1434	94610 27 261 261 0.0000006304 0.0000006304 1 8940 8940 8940 79923600
1435	94637 29 261 261 0.0000006304 0.0000006304 1 0.3725 0.3725 0.3725 0.13875625
1431	94666 24 261 261 0.0000006304 0.0000006304 1 3 3 3 9
1438	94690 24 261 261 0.0000006304 0.0000006304 1 1 1 1 1
1450	94714 24 189 189 0.0000003096 0.0000003096 1 0 0 0 0
1406	94738 28 261 261 0.0000006304 0.0000006304 1 65535 65535 65535 4294836225
1407	94766 27 261 261 0.0000006304 0.0000006304 1 8940 8940 8940 79923600
1408	94793 29 261 261 0.0000006304 0.0000006304 1 0.3725 0.3725 0.3725 0.13875625
1404	94822 24 261 261 0.0000006304 0.0000006304 1 3 3 3 9
1411	94846 24 261 261 0.0000006304 0.0000006304 1 1 1 1 1
1423	94870 24 189 189 0.0000003096 0.0000003096 1 0 0 0 0
1119	94894 28 261 261 0.0000006304 0.0000006304 1 65535 65535 65535 4294836225
1120	94922 27 261 261 0.0000006304 0.0000006304 1 8940 8940 8940 79923600
1121	94949 29 261 261 0.0000006304 0.0000006304 1 0.3725 0.3725 0.3725 0.13875625
1117	94978 48 261 326 0.0000006304 0.0000008564 2 1 3 4 10
1118	95026 31 326 326 0.0000008564 0.0000008564 1 2.26e-07 2.26e-07 2.26e-07 5.1076e-14
1123	95057 2590 723 15829 0.0070000972 0.2070018716 90 2000 2089 184005 376258965
1126	97647 46 233 247 0.000000552 0.000000596 2 1 2 3 5
1125	97693 46 233 247 0.000000552 0.000000596 2 1 2 3 5
1127	97739 48 326 332 0.0000008564 0.0000009004 2 1 2 3 5
1136	97787 13 157 157 0 0 1 0 0 0 0
1095	97800 88 723 31871 0.0070000972 0.4070018716 3 65533 65535 196603 12884246539
1099	97888 2399 723 31871 0.0070000972 0.4070018716 93 0 160 182 25932
1104	100287 76 723 31871 0.0070000972 0.4070018716 3 0 0 0 0
1105	100363 76 723 31871 0.0070000972 0.4070018716 3 0 0 0 0
1106	100439 76 723 31871 0.0070000972 0.4070018716 3 0 0 0 0
1107	100515 76 723 31871 0.0070000972 0.4070018716 3 0 0 0 0
1108	100591 76 723 31871 0.0070000972 0.4070018716 3 0 0 0 0
1109	100667 76 723 31871 0.0070000972 0.4070018716 3 0 0 0 0
1110	100743 76 723 31871 0.0070000972 0.4070018716 3 0 0 0 0
1111	100819 79 723 31871 0.0070000972 0.4070018716 3 16 16 48 768
1113	100898 28 189 189 0.0000003096 0.0000003096 1 65535 65535 65535 4294836225
1115	100926 3119 726 15910 0.0070000972 0.2070018716 90 9.72e-08 1.3612e-06 0.00011102 1.486951184e-10
1116	104045 13 157 157 0 0 1 0 0 0 0
1195	104058 27 202 202 0.000000458 0.000000458 1 65535 65535 65535 4294836225
1196	104085 26 202 202 0.000000458 0.000000458 1 8940 8940 8940 79923600
1197	104111 28 202 202 0.000000458 0.000000458 1 0.3725 0.3725 0.3725 0.13875625
1193	104139 23 202 202 0.000000458 0.000000458 1 3 3 3 9
1200	104162 23 202 202 0.000000458 0.000000458 1 1 1 1 1
1208	104185 77 4058 35709 0.0570001912 0.4570019656 3 0 0 0 0
1209	104262 77 4058 35709 0.0570001912 0.4570019656 3 0 0 0 0
1210	104339 77 4058 35709 0.0570001912 0.4570019656 3 0 0 0 0
1212	104416 24 174 174 0.0000001228 0.0000001228 1 0 0 0 0
1168	104440 27 202 202 0.000000458 0.000000458 1 65535 65535 65535 4294836225
1169	104467 26 202 202 0.000000458 0.000000458 1 8940 8940 8940 79923600
1170	104493 28 202 202 0.000000458 0.000000458 1 0.3725 0.3725 0.3725 0.13875625
1166	104521 23 202 202 0.000000458 0.000000458 1 3 3 3 9
1173	104544 23 202 202 0.000000458 0.000000458 1 1 1 1 1
1181	104567 77 4058 35709 0.0570001912 0.4570019656 3 0 0 0 0
1182	104644 77 4058 35709 0.0570001912 0.4570019656 3 0 0 0 0
1183	104721 77 4058 35709 0.0570001912 0.4570019656 3 0 0 0 0
1185	104798 24 174 174 0.0000001228 0.0000001228 1 0 0 0 0
1222	104822 57 202 96777 0.000000458 1.2570005104 2 65535 65535 131070 8589672450
1223	104879 55 202 96777 0.000000458 1.2570005104 2 8940 8940 17880 159847200
1224	104934 58 202 96777 0.000000458 1.2570005104 2 0.3725 23.84 24.2125 568.48435625
1220	104992 124 202 35709 0.000000458 0.4570019656 5 1 3 7 13
1221	105116 139 281 35709 0.0000006744 0.4570019656 4 1.912e-07 0.2000014552 0.400002182 0.080000709762303
1225	105255 2593 3979 20018 0.057 0.2570005104 90 2000 2089 184005 376258965
1229	107848 48 299 313 0.0000007624 0.0000008064 2 1 2 3 5
1228	107896 48 299 313 0.0000007624 0.0000008064 2 1 2 3 5
1230	107944 48 281 291 0.0000006744 0.0000007184 2 1 2 3 5
1231	107992 4883 3979 35709 0.057 0.4570019656 180 0 160 12964 1367400
1232	112875 4883 3979 35709 0.057 0.4570019656 180 0 160 12964 1367400
1235	117758 77 4058 35709 0.0570001912 0.4570019656 3 0 0 0 0
1236	117835 77 4058 35709 0.0570001912 0.4570019656 3 0 0 0 0
1237	117912 77 4058 35709 0.0570001912 0.4570019656 3 0 0 0 0
1238	117989 77 4058 35709 0.0570001912 0.4570019656 3 0 0 0 0
1239	118066 24 174 174 0.0000001228 0.0000001228 1 0 0 0 0
1242	118090 86 4058 35709 0.0570001912 0.4570019656 3 2000 2089 6098 12400002
1244	118176 77 4058 35709 0.0570001912 0.4570019656 3 0 0 0 0
1245	118253 77 4058 35709 0.0570001912 0.4570019656 3 0 0 0 0
1460	118330 77 4058 35709 0.0570001912 0.4570019656 3 0 0 0 0
1461	118407 4084 3979 20018 0.057 0.2570005104 180 0 80 6482 341850
1030	122491 4883 3979 35709 0.057 0.4570019656 180 0 160 12964 1367400
1029	127374 4883 3979 35709 0.057 0.4570019656 180 0 160 12964 1367400
1031	132257 77 4058 35709 0.0570001912 0.4570019656 3 0 0 0 0
1032	132334 77 4058 35709 0.0570001912 0.4570019656 3 0 0 0 0
1041	132411 89 4058 35709 0.0570001912 0.4570019656 3 65533 65535 196603 12884246539
1042	132500 117 174 35709 0.0000001228 0.4570019656 4 65533 65535 262138 17179082764
1045	132617 13 153 153 0 0 1 0 0 0 0
8	132630 8 0 0 0 0 1 0 0 0 0
9	132638 8 0 0 0 0 1 0 0 0 0
24	132646 9 0 0 0 0 1 0 0 0 0
25	132655 9 0 0 0 0 1 0 0 0 0
35	132664 9 0 0 0 0 1 0 0 0 0
36	132673 9 0 0 0 0 1 0 0 0 0
56	132682 9 0 0 0 0 1 0 0 0 0
57	132691 9 0 0 0 0 1 0 0 0 0
67	132700 9 0 0 0 0 1 0 0 0 0
68	132709 9 0 0 0 0 1 0 0 0 0
78	132718 9 0 0 0 0 1 0 0 0 0
79	132727 9 0 0 0 0 1 0 0 0 0
96	132736 969888 418 825978 0.002 10 54906 0 0 0 0
98	1102624 611567 1476 825978 0.02 10 34585 0 0 0 0
100	1714191 320292 1940 825972 0.029 10 14590 1 14590 106441345 1035354962815
101	2034483 41849 1476 825978 0.02 10 2018 1 2018 2037171 2741353109
106	2076332 398268 1476 825978 0.02 10 19248 512 521 9898877 5091065757
108	2474600 12458 8145 824511 0.108 9.983 660 8 8 5280 42240
109	2487058 39352 7627 825708 0.102 9.997 1980 9 10 19798 197962
111	2526410 636954 1476 825978 0.02 10 28569 1 28569 408108165 7772964146645
112	3163364 590922 1476 825978 0.02 10 28569 153 331 7553596 2160639254
113	3754286 533784 1476 825978 0.02 10 28569 0 0 0 0
115	4288070 24950 6951 825895 0.094 9.999 1322 6 6 7932 47592
120	4313020 10 0 0 0 0 1 0 0 0 0
121	4313030 10 0 0 0 0 1 0 0 0 0
128	4313040 421 164 35704 0 0.4570018716 18 36 1632 2824 2785120
130	4313461 438 164 35704 0 0.4570018716 18 0 8.8e-08 3.088e-07 1.946112e-14
131	4313899 280 0 283 0 0.0000007124 13 0 2 10 14
132	4314179 828 0 35706 0 0.4570019156 37 0 1 18 18
133	4315007 423 166 35705 0 0.4570018716 18 43 1639 2950 2825538
134	4315430 442 171 31876 0.0000001228 0.4070019656 18 43 1639 2950 2825538
137	4315872 423 166 35705 0 0.4570018716 18 36 1632 2824 2785120
138	4316295 442 171 31876 0.0000001228 0.4070019656 18 36 1632 2824 2785120
141	4316737 2240 4051 20265 0.0570000972 0.2570018716 90 2 2 180 360
154	4318977 361179 4409 825956 0.062 10 19361 0 0 0 0
156	4680156 105190 4653 825956 0.065 10 5578 0 0 0 0
169	4785346 59505 4653 825956 0.065 10 2791 1 2791 3896236 7250895196
170	4844851 57821 4653 825956 0.065 10 2791 402 673 1732271 1083047197
171	4902672 52239 4653 825956 0.065 10 2791 0 0 0 0
178	4954911 10 0 0 0 0 1 0 0 0 0
179	4954921 10 0 0 0 0 1 0 0 0 0
186	4954931 422 165 31873 0 0.4070018716 18 36 1632 2824 2785120
188	4955353 439 165 31873 0 0.4070018716 18 0 8.8e-08 3.088e-07 1.946112e-14
189	4955792 280 0 282 0 0.0000007124 13 0 2 10 14
190	4956072 830 0 31875 0 0.4070019156 37 0 1 18 18
191	4956902 424 167 31874 0 0.4070018716 18 43 1639 2950 2825538
192	4957326 441 170 35707 0.0000001228 0.4570019656 18 43 1639 2950 2825538
195	4957767 424 167 31874 0 0.4070018716 18 36 1632 2824 2785120
196	4958191 441 170 35707 0.0000001228 0.4570019656 18 36 1632 2824 2785120
199	4958632 2230 728 16069 0.0070000972 0.2070018716 90 2 2 180 360
205	4960862 85 6470 748179 0.088784986169 9.088784986169 3 44 44 132 5808
208	4960947 85 6470 748179 0.088784986169 9.088784986169 3 45 45 135 6075
209	4961032 85 6473 748182 0.088784986169 9.088784986169 3 45 45 135 6075
210	4961117 99765 6684 825832 0.091 9.998 5286 0 0 0 0
212	5060882 87308 6477 825849 0.089 9.999 4626 0 0 0 0
218	5148190 13670 7717 824124 0.104 9.979 660 1 660 218130 96049910
231	5161860 10 0 0 0 0 1 1 1 1 1
237	5161870 85 4614 745979 0.064770889489 9.064770889489 3 44 44 132 5808
240	5161955 85 4614 745979 0.064770889489 9.064770889489 3 45 45 135 6075
241	5162040 912 4617 752641 0.064770889489 9.139 48 5 45 360 7200
242	5162952 27455 1399 824437 0.019 9.982 1484 0 0 0 0
243	5190407 827 4957 752637 0.069 9.139 45 0 0 0 0
244	5191234 25974 1399 824437 0.019 9.982 1402 0 0 0 0
249	5217208 657 1508 4473 0.021 0.062 37 1 37 703 17575
263	5217865 10 0 0 0 0 1 1 1 1 1
269	5217875 85 2196 743201 0.032649362497 9.032649362497 3 44 44 132 5808
272	5217960 85 2196 743201 0.032649362497 9.032649362497 3 45 45 135 6075
273	5218045 37679 2199 825659 0.032649362497 9.997 1996 0 45 135 6075
274	5255724 148855 2330 825962 0.035 10 7948 0 0 0 0
275	5404579 37594 2478 825655 0.037 9.997 1993 0 0 0 0
276	5442173 112376 2204 825906 0.033 9.999 5955 0 0 0 0
295	5554549 10 0 0 0 0 1 1 1 1 1
301	5554559 85 2415 743516 0.036651693161 9.036651693161 3 44 44 132 5808
304	5554644 85 2415 743516 0.036651693161 9.036651693161 3 45 45 135 6075
305	5554729 85 2418 743519 0.036651693161 9.036651693161 3 45 45 135 6075
306	5554814 26391 234488 825884 3.059 9.999 1389 0 0 0 0
308	5581205 52926 2483 825884 0.037 9.999 2786 0 0 0 0
315	5634131 29619 2483 825660 0.037 9.997 1397 1 1397 976503 909775295
327	5663750 163 0 7843 0 0.105 10 1 2 19 37
333	5663913 85 4123 745380 0.057963030662 9.057963030662 3 44 44 132 5808
336	5663998 85 4123 745380 0.057963030662 9.057963030662 3 45 45 135 6075
337	5664083 85 4126 745383 0.057963030662 9.057963030662 3 45 45 135 6075
338	5664168 26467 232810 825823 3.038 9.998 1393 0 0 0 0
340	5690635 52875 4134 825823 0.058 9.998 2783 0 0 0 0
347	5743510 29471 4134 825716 0.058 9.998 1390 1 1390 966745 896172615
359	5772981 163 0 7844 0 0.105 10 1 2 19 37
365	5773144 82 7105 748902 0.09658703896 9.09658703896 3 44 44 132 5808
368	5773226 82 7105 748902 0.09658703896 9.09658703896 3 45 45 135 6075
369	5773308 26302 7108 825573 0.09658703896 9.996 1383 0 45 135 6075
370	5799610 51721 7414 825948 0.099 10 2763 0 0 0 0
371	5851331 26220 238178 825569 3.101 9.996 1380 0 0 0 0
372	5877551 26256 7147 825663 0.097 9.997 1382 0 0 0 0
391	5903807 163 0 7845 0 0.105 10 1 2 19 37
397	5903970 82 1815 742664 0.02660460389 9.02660460389 3 44 44 132 5808
400	5904052 82 1815 742664 0.02660460389 9.02660460389 3 45 45 135 6075
401	5904134 82 1818 742667 0.02660460389 9.02660460389 3 45 45 135 6075
404	5904216 37628 1827 825665 0.027 9.997 1995 0 0 0 0
410	5941844 42506 1827 825665 0.027 9.997 1995 1 1995 1991010 2648706970
423	5984350 10 0 0 0 0 1 1 1 1 1
429	5984360 85 3847 745177 0.055890854003 9.055890854003 3 44 44 132 5808
432	5984445 85 3847 745177 0.055890854003 9.055890854003 3 45 45 135 6075
433	5984530 85 3850 745180 0.055890854003 9.055890854003 3 45 45 135 6075
436	5984615 37526 3860 825575 0.056 9.996 1989 0 0 0 0
442	6022141 42386 3860 825575 0.056 9.996 1989 1 1989 1979055 2624886615
455	6064527 10 0 0 0 0 1 1 1 1 1
461	6064537 85 2717 743888 0.040940929686 9.040940929686 3 44 44 132 5808
464	6064622 85 2717 743888 0.040940929686 9.040940929686 3 45 45 135 6075
465	6064707 85 2720 743891 0.040940929686 9.040940929686 3 45 45 135 6075
468	6064792 37577 2731 825577 0.041 9.996 1992 0 0 0 0
474	6102369 42446 2731 825577 0.041 9.996 1992 1 1992 1985028 2636778860
487	6144815 10 0 0 0 0 1 1 1 1 1
493	6144825 85 5712 747348 0.079275280847 9.079275280847 3 44 44 132 5808
496	6144910 85 5712 747348 0.079275280847 9.079275280847 3 45 45 135 6075
497	6144995 85 5715 747351 0.079275280847 9.079275280847 3 45 45 135 6075
500	6145080 36347 5729 825926 0.08 10 1985 0 0 0 0
506	6181427 41195 5729 825926 0.08 10 1985 1 1985 1971105 2609085985
519	6222622 10 0 0 0 0 1 1 1 1 1
525	6222632 85 5981 747626 0.082257983647 9.082257983647 3 44 44 132 5808
528	6222717 85 5981 747626 0.082257983647 9.082257983647 3 45 45 135 6075
529	6222802 85 5984 747629 0.082257983647 9.082257983647 3 45 45 135 6075
530	6222887 559698 1890 825976 0.028 10 29843 0 0 0 0
532	6782585 299152 1890 825953 0.028 10 15915 0 0 0 0
536	7081737 306262 2009 825976 0.03 10 13928 1 13928 97001556 900724115164
551	7387999 10 0 0 0 0 1 1 1 1 1
557	7388009 82 3280 744570 0.04821039218 9.04821039218 3 44 44 132 5808
560	7388091 82 3280 744570 0.04821039218 9.04821039218 3 45 45 135 6075
561	7388173 82 3283 744573 0.04821039218 9.04821039218 3 45 45 135 6075
564	7388255 37561 3352 825861 0.049 9.999 1991 0 0 0 0
570	7425816 42427 3352 825861 0.049 9.999 1991 1 1991 1983036 2632810796
583	7468243 10 0 0 0 0 1 1 1 1 1
589	7468253 85 1902 742806 0.028371024961 9.028371024961 3 44 44 132 5808
592	7468338 85 1902 742806 0.028371024961 9.028371024961 3 45 45 135 6075
593	7468423 26571 1905 825730 0.028371024961 9.998 1397 0 45 135 6075
594	7494994 105052 232178 825964 3.031 10 5570 0 0 0 0
595	7600046 26486 232338 825726 3.033 9.998 1394 0 0 0 0
596	7626532 78687 1920 825964 0.029 10 4183 0 0 0 0
603	7705219 102 1920 3691 0.029 0.054 6 1 6 21 91
615	7705321 163 0 7846 0 0.105 10 1 2 19 37
621	7705484 85 1223 741735 0.016038050947 9.016038050947 3 44 44 132 5808
624	7705569 85 1223 741735 0.016038050947 9.016038050947 3 45 45 135 6075
625	7705654 125 1226 742154 0.016038050947 9.021 5 45 47 229 10493
626	7705779 74 231202 742095 3.019 9.02 4 0 0 0 0
627	7705853 38 231354 742150 3.021 9.021 2 0 0 0 0
628	7705891 174 1242 741762 0.017 9.017 10 0 0 0 0
635	7706065 136 1242 3569 0.017 0.052 8 1 8 36 204
647	7706201 163 0 7847 0 0.105 10 1 2 19 37
653	7706364 85 1855 742729 0.027878343419 9.027878343419 3 44 44 132 5808
656	7706449 85 1855 742729 0.027878343419 9.027878343419 3 45 45 135 6075
657	7706534 125 1858 743097 0.027878343419 9.032 5 45 47 229 10493
658	7706659 74 232089 743048 3.03 9.031 4 0 0 0 0
659	7706733 38 232210 743093 3.032 9.032 2 0 0 0 0
660	7706771 140 1875 742756 0.028 9.028 8 0 0 0 0
667	7706911 102 1875 3616 0.028 0.053 6 1 6 21 91
679	7707013 163 0 7848 0 0.105 10 1 2 19 37
685	7707176 85 2291 743348 0.034516076937 9.034516076937 3 44 44 132 5808
688	7707261 85 2291 743348 0.034516076937 9.034516076937 3 45 45 135 6075
689	7707346 125 2294 743771 0.034516076937 9.039 5 45 47 229 10493
690	7707471 76 232690 743721 3.037 9.038 4 0 0 0 0
691	7707547 38 232850 743767 3.039 9.039 2 0 0 0 0
692	7707585 121 2313 743371 0.035 9.035 7 0 0 0 0
699	7707706 83 2313 3805 0.035 0.055 5 1 5 15 55
711	7707789 163 0 7849 0 0.105 10 1 2 19 37
717	7707952 85 4559 745902 0.063891002787 9.063891002787 3 44 44 132 5808
720	7708037 85 4559 745902 0.063891002787 9.063891002787 3 45 45 135 6075
721	7708122 125 4562 746268 0.063891002787 9.068 5 45 47 229 10493
722	7708247 93 4730 746223 0.066 9.067 5 0 0 0 0
723	7708340 38 235236 746264 3.068 9.068 2 0 0 0 0
724	7708378 55 4582 745929 0.064 9.064 3 0 0 0 0
743	7708433 163 0 7850 0 0.105 10 1 2 19 37
749	7708596 85 6462 748172 0.088577514598 9.088577514598 3 44 44 132 5808
752	7708681 85 6462 748172 0.088577514598 9.088577514598 3 45 45 135 6075
753	7708766 125 6465 748609 0.088577514598 9.093 5 45 47 229 10493
754	7708891 93 6689 748563 0.091 9.092 5 0 0 0 0
755	7708984 38 237507 748605 3.093 9.093 2 0 0 0 0
756	7709022 55 6500 748211 0.089 9.089 3 0 0 0 0
775	7709077 163 0 7851 0 0.105 10 1 2 19 37
781	7709240 85 1513 742201 0.021540784608 9.021540784608 3 44 44 132 5808
784	7709325 85 1513 742201 0.021540784608 9.021540784608 3 45 45 135 6075
785	7709410 125 1516 742558 0.021540784608 9.026 5 45 47 229 10493
786	7709535 76 231596 742493 3.024 9.025 4 0 0 0 0
787	7709611 38 231714 742554 3.026 9.026 2 0 0 0 0
788	7709649 157 1538 742232 0.022 9.022 9 0 0 0 0
795	7709806 119 1538 3575 0.022 0.052 7 1 7 28 140
807	7709925 163 0 7852 0 0.105 10 1 2 19 37
813	7710088 85 7097 748895 0.096236986774 9.096236986774 3 44 44 132 5808
816	7710173 85 7097 748895 0.096236986774 9.096236986774 3 45 45 135 6075
817	7710258 85 7100 748898 0.096236986774 9.096236986774 3 45 45 135 6075
818	7710343 626 1312 4208 0.018 0.059 37 0 0 0 0
820	7710969 38017 1312 825679 0.018 9.997 2018 0 0 0 0
827	7748986 42227 7163 825679 0.097 9.997 1981 1 1981 1963171 2593348891
839	7791213 10 0 0 0 0 1 1 1 1 1
845	7791223 85 5096 746595 0.071485376221 9.071485376221 3 44 44 132 5808
848	7791308 85 5096 746595 0.071485376221 9.071485376221 3 45 45 135 6075
849	7791393 256 5099 747933 0.071485376221 9.086 12 3 45 288 9558
850	7791649 327 5357 747862 0.074 9.085 18 0 0 0 0
851	7791976 165 5472 747929 0.076 9.086 9 0 0 0 0
852	7792141 165 5153 747591 0.072 9.082 9 0 0 0 0
871	7792306 10 0 0 0 0 1 1 1 1 1
877	7792316 85 5500 747076 0.076776781168 9.076776781168 3 44 44 132 5808
880	7792401 85 5500 747076 0.076776781168 9.076776781168 3 45 45 135 6075
881	7792486 37526 5503 825595 0.076776781168 9.996 1987 0 45 135 6075
882	7830012 73807 5703 825946 0.079 10 3970 0 0 0 0
883	7903819 37441 5899 825591 0.081 9.996 1984 0 0 0 0
884	7941260 37459 5534 825682 0.077 9.997 1985 0 0 0 0
903	7978719 10 0 0 0 0 1 1 1 1 1
909	7978729 82 7317 749134 0.09845927062 9.09845927062 3 44 44 132 5808
912	7978811 82 7317 749134 0.09845927062 9.09845927062 3 45 45 135 6075
913	7978893 37456 7320 825744 0.09845927062 9.998 1983 0 45 135 6075
914	8016349 74747 7537 825693 0.101 9.997 3960 0 0 0 0
915	8091096 37374 7679 825740 0.103 9.998 1980 0 0 0 0
916	8128470 37391 7392 825874 0.099 9.999 1981 0 0 0 0
935	8165861 10 0 0 0 0 1 1 1 1 1
941	8165871 85 3195 744467 0.047449069971 9.047449069971 3 44 44 132 5808
944	8165956 85 3195 744467 0.047449069971 9.047449069971 3 45 45 135 6075
945	8166041 85 3198 744470 0.047449069971 9.047449069971 3 45 45 135 6075
948	8166126 37561 3251 825745 0.048 9.998 1991 0 0 0 0
954	8203687 42427 3251 825745 0.048 9.998 1991 1 1991 1983036 2632810796
967	8246114 10 0 0 0 0 1 1 1 1 1
973	8246124 85 4115 745373 0.057842512242 9.057842512242 3 44 44 132 5808
976	8246209 85 4115 745373 0.057842512242 9.057842512242 3 45 45 135 6075
977	8246294 85 4118 745376 0.057842512242 9.057842512242 3 45 45 135 6075
978	8246379 12458 8518 824940 0.113 9.988 660 0 0 0 0
980	8258837 49985 4156 825747 0.058 9.998 2649 0 0 0 0
986	8308822 42387 4156 825747 0.058 9.998 1989 1 1989 1979055 2624886615
999	8351209 10 0 0 0 0 1 1 1 1 1
1479	8351219 94 1220 741732 0.016038050947 9.016038050947 3 7504 7504 22512 168930048
1480	8351313 94 1220 741732 0.016038050947 9.016038050947 3 7504 7504 22512 168930048
1482	8351407 85 1220 741732 0.016038050947 9.016038050947 3 0 0 0 0
1493	8351492 85 1220 741732 0.016038050947 9.016038050947 3 0 0 0 0
1503	8351577 94 1510 742198 0.021540784608 9.021540784608 3 7504 7504 22512 168930048
1504	8351671 94 1510 742198 0.021540784608 9.021540784608 3 7504 7504 22512 168930048
1506	8351765 85 1510 742198 0.021540784608 9.021540784608 3 0 0 0 0
1517	8351850 85 1510 742198 0.021540784608 9.021540784608 3 0 0 0 0
1527	8351935 91 1812 742661 0.02660460389 9.02660460389 3 7504 7504 22512 168930048
1528	8352026 91 1812 742661 0.02660460389 9.02660460389 3 7504 7504 22512 168930048
1530	8352117 82 1812 742661 0.02660460389 9.02660460389 3 0 0 0 0
1541	8352199 82 1812 742661 0.02660460389 9.02660460389 3 0 0 0 0
1551	8352281 94 1852 742726 0.027878343419 9.027878343419 3 7504 7504 22512 168930048
1552	8352375 94 1852 742726 0.027878343419 9.027878343419 3 7504 7504 22512 168930048
1554	8352469 85 1852 742726 0.027878343419 9.027878343419 3 0 0 0 0
1565	8352554 85 1852 742726 0.027878343419 9.027878343419 3 0 0 0 0
1575	8352639 94 1899 742803 0.028371024961 9.028371024961 3 7504 7504 22512 168930048
1576	8352733 94 1899 742803 0.028371024961 9.028371024961 3 7504 7504 22512 168930048
1578	8352827 85 1899 742803 0.028371024961 9.028371024961 3 0 0 0 0
1589	8352912 85 1899 742803 0.028371024961 9.028371024961 3 0 0 0 0
1599	8352997 94 2193 743198 0.032649362497 9.032649362497 3 7504 7504 22512 168930048
1600	8353091 94 2193 743198 0.032649362497 9.032649362497 3 7504 7504 22512 168930048
1602	8353185 85 2193 743198 0.032649362497 9.032649362497 3 0 0 0 0
1613	8353270 85 2193 743198 0.032649362497 9.032649362497 3 0 0 0 0
1623	8353355 94 2288 743345 0.034516076937 9.034516076937 3 7504 7504 22512 168930048
1624	8353449 94 2288 743345 0.034516076937 9.034516076937 3 7504 7504 22512 168930048
1626	8353543 85 2288 743345 0.034516076937 9.034516076937 3 0 0 0 0
1637	8353628 85 2288 743345 0.034516076937 9.034516076937 3 0 0 0 0
1647	8353713 94 2412 743513 0.036651693161 9.036651693161 3 7504 7504 22512 168930048
1648	8353807 94 2412 743513 0.036651693161 9.036651693161 3 7504 7504 22512 168930048
1650	8353901 85 2412 743513 0.036651693161 9.036651693161 3 0 0 0 0
1661	8353986 85 2412 743513 0.036651693161 9.036651693161 3 0 0 0 0
1671	8354071 94 2714 743885 0.040940929686 9.040940929686 3 7504 7504 22512 168930048
1672	8354165 94 2714 743885 0.040940929686 9.040940929686 3 7504 7504 22512 168930048
1674	8354259 85 2714 743885 0.040940929686 9.040940929686 3 0 0 0 0
1685	8354344 85 2714 743885 0.040940929686 9.040940929686 3 0 0 0 0
1695	8354429 94 3192 744464 0.047449069971 9.047449069971 3 7504 7504 22512 168930048
1696	8354523 94 3192 744464 0.047449069971 9.047449069971 3 7504 7504 22512 168930048
1698	8354617 85 3192 744464 0.047449069971 9.047449069971 3 0 0 0 0
1709	8354702 85 3192 744464 0.047449069971 9.047449069971 3 0 0 0 0
1719	8354787 91 3277 744567 0.04821039218 9.04821039218 3 7504 7504 22512 168930048
1720	8354878 91 3277 744567 0.04821039218 9.04821039218 3 7504 7504 22512 168930048
1722	8354969 82 3277 744567 0.04821039218 9.04821039218 3 0 0 0 0
1733	8355051 82 3277 744567 0.04821039218 9.04821039218 3 0 0 0 0
1743	8355133 94 3844 745174 0.055890854003 9.055890854003 3 7504 7504 22512 168930048
1744	8355227 94 3844 745174 0.055890854003 9.055890854003 3 7504 7504 22512 168930048
1746	8355321 85 3844 745174 0.055890854003 9.055890854003 3 0 0 0 0
1757	8355406 85 3844 745174 0.055890854003 9.055890854003 3 0 0 0 0
1767	8355491 94 4112 745370 0.057842512242 9.057842512242 3 7504 7504 22512 168930048
1768	8355585 94 4112 745370 0.057842512242 9.057842512242 3 7504 7504 22512 168930048
1770	8355679 85 4112 745370 0.057842512242 9.057842512242 3 0 0 0 0
1781	8355764 85 4112 745370 0.057842512242 9.057842512242 3 0 0 0 0
1791	8355849 94 4120 745377 0.057963030662 9.057963030662 3 7504 7504 22512 168930048
1792	8355943 94 4120 745377 0.057963030662 9.057963030662 3 7504 7504 22512 168930048
1794	8356037 85 4120 745377 0.057963030662 9.057963030662 3 0 0 0 0
1805	8356122 85 4120 745377 0.057963030662 9.057963030662 3 0 0 0 0
1815	8356207 94 4556 745899 0.063891002787 9.063891002787 3 7504 7504 22512 168930048
1816	8356301 94 4556 745899 0.063891002787 9.063891002787 3 7504 7504 22512 168930048
1818	8356395 85 4556 745899 0.063891002787 9.063891002787 3 0 0 0 0
1829	8356480 85 4556 745899 0.063891002787 9.063891002787 3 0 0 0 0
1839	8356565 94 4611 745976 0.064770889489 9.064770889489 3 7504 7504 22512 168930048
1840	8356659 94 4611 745976 0.064770889489 9.064770889489 3 7504 7504 22512 168930048
1842	8356753 85 4611 745976 0.064770889489 9.064770889489 3 0 0 0 0
1853	8356838 85 4611 745976 0.064770889489 9.064770889489 3 0 0 0 0
1863	8356923 94 5093 746592 0.071485376221 9.071485376221 3 7504 7504 22512 168930048
1864	8357017 94 5093 746592 0.071485376221 9.071485376221 3 7504 7504 22512 168930048
1866	8357111 85 5093 746592 0.071485376221 9.071485376221 3 0 0 0 0
1877	8357196 85 5093 746592 0.071485376221 9.071485376221 3 0 0 0 0
1887	8357281 94 5497 747073 0.076776781168 9.076776781168 3 7504 7504 22512 168930048
1888	8357375 94 5497 747073 0.076776781168 9.076776781168 3 7504 7504 22512 168930048
1890	8357469 85 5497 747073 0.076776781168 9.076776781168 3 0 0 0 0
1901	8357554 85 5497 747073 0.076776781168 9.076776781168 3 0 0 0 0
1911	8357639 94 5709 747345 0.079275280847 9.079275280847 3 7504 7504 22512 168930048
1912	8357733 94 5709 747345 0.079275280847 9.079275280847 3 7504 7504 22512 168930048
1914	8357827 85 5709 747345 0.079275280847 9.079275280847 3 0 0 0 0
1925	8357912 85 5709 747345 0.079275280847 9.079275280847 3 0 0 0 0
1935	8357997 94 5978 747623 0.082257983647 9.082257983647 3 7504 7504 22512 168930048
1936	8358091 94 5978 747623 0.082257983647 9.082257983647 3 7504 7504 22512 168930048
1938	8358185 85 5978 747623 0.082257983647 9.082257983647 3 0 0 0 0
1949	8358270 85 5978 747623 0.082257983647 9.082257983647 3 0 0 0 0
1959	8358355 94 6459 748169 0.088577514598 9.088577514598 3 7504 7504 22512 168930048
1960	8358449 94 6459 748169 0.088577514598 9.088577514598 3 7504 7504 22512 168930048
1962	8358543 85 6459 748169 0.088577514598 9.088577514598 3 0 0 0 0
1973	8358628 85 6459 748169 0.088577514598 9.088577514598 3 0 0 0 0
1983	8358713 94 6467 748176 0.088784986169 9.088784986169 3 7504 7504 22512 168930048
1984	8358807 94 6467 748176 0.088784986169 9.088784986169 3 7504 7504 22512 168930048
1986	8358901 85 6467 748176 0.088784986169 9.088784986169 3 0 0 0 0
1997	8358986 85 6467 748176 0.088784986169 9.088784986169 3 0 0 0 0
2007	8359071 94 7094 748892 0.096236986774 9.096236986774 3 7504 7504 22512 168930048
2008	8359165 94 7094 748892 0.096236986774 9.096236986774 3 7504 7504 22512 168930048
2010	8359259 85 7094 748892 0.096236986774 9.096236986774 3 0 0 0 0
2021	8359344 85 7094 748892 0.096236986774 9.096236986774 3 0 0 0 0
2031	8359429 91 7102 748899 0.09658703896 9.09658703896 3 7504 7504 22512 168930048
2032	8359520 91 7102 748899 0.09658703896 9.09658703896 3 7504 7504 22512 168930048
2034	8359611 82 7102 748899 0.09658703896 9.09658703896 3 0 0 0 0
2045	8359693 82 7102 748899 0.09658703896 9.09658703896 3 0 0 0 0
2055	8359775 91 7314 749131 0.09845927062 9.09845927062 3 7504 7504 22512 168930048
2056	8359866 91 7314 749131 0.09845927062 9.09845927062 3 7504 7504 22512 168930048
2058	8359957 82 7314 749131 0.09845927062 9.09845927062 3 0 0 0 0
2069	8360039 82 7314 749131 0.09845927062 9.09845927062 3 0 0 0 0
