version 2
run CAIN-43-20200508-15:51:05-11398
attr configname CAIN
attr datetime 20200508-15:51:05
attr dist 200
attr experiment CAIN
attr extAllocType "\"CONTIGUOUS_ALLOC\""
attr inifile omnetpp.ini
attr iterationvars "$numUe=20, $pwr=-50, $dist=200, $mob=\"./movements/RPGM-0.0.movements\", $extAllocType=\"CONTIGUOUS_ALLOC\""
attr iterationvars2 "$numUe=20, $pwr=-50, $dist=200, $mob=\"./movements/RPGM-0.0.movements\", $extAllocType=\"CONTIGUOUS_ALLOC\", $repetition=3"
attr measurement "$numUe=20, $pwr=-50, $dist=200, $mob=\"./movements/RPGM-0.0.movements\", $extAllocType=\"CONTIGUOUS_ALLOC\""
attr mob "\"./movements/RPGM-0.0.movements\""
attr network lte.simulations.networks.CAIN
attr numUe 20
attr processid 11398
attr pwr -50
attr repetition 3
attr replication #3
attr resultdir results
attr runnumber 43
attr seedset 3
param **.**.amcMode "\"AUTO\""
param **.amcMode "\"D2D\""
param **.cainNetwork true
param **.channelControl.alpha 1.0
param **.channelControl.carrierFrequency 2100e+6Hz
param **.channelControl.pMax 10W
param **.d2dCqi 7
param **.deployer.numRbDl 50
param **.deployer.numRbUl 50
param **.distThresh ${dist=200}
param **.fbDelay 1
param **.feedbackComputation "xmldoc(\"config_channel.xml\")"
param **.mobility.constraintAreaMaxX 1000m
param **.mobility.constraintAreaMaxY 1000m
param **.mobility.constraintAreaMaxZ 0m
param **.mobility.constraintAreaMinX 0m
param **.mobility.constraintAreaMinY 0m
param **.mobility.constraintAreaMinZ 0m
param **.nic.phy.channelModel "xmldoc(\"config_channel.xml\")"
param **.numBands 50
param **.pwrThresh "${pwr= -50}"
param **.qtdThresh 3
param **.rbAllocationType "\"localized\""
param **.routingRecorder.enabled false
param **.tcpApp[*].tClose -1s
param **.ueD2DTx[*].mobility.changeAngleBy "normal(0deg, 30deg)"
param **.ueD2DTx[*].mobility.changeInterval "normal(5s, 0.1s)"
param **.ueD2DTx[*].mobility.nodeId -1
param **.ueD2DTx[*].mobility.speed "normal(2mps, 0.01mps)"
param **.ueD2DTx[*].mobility.traceFile "${mob=\"./movements/RWP-0.0.movements\",\"./movements/RWP-0.5.movements\",\"./movements/RPGM-0.0.movements\",\"./movements/RPGM-0.5.movements\",\"./movements/RWPRPGM-0.0.movements\",\"./movements/RWPRPGM-0.5.movements\"}"
param **.ueD2DTx[*].mobilityType "\"BonnMotionMobility\""
param **.usePreconfiguredTxParams false
param *.eNodeB*.numX2Apps 1
param *.eNodeB*.x2App[*].server.localPort "5000 + ancestorIndex(1)"
param *.eNodeB.d2dCapable false
param *.eNodeB.mobility.initFromDisplayString false
param *.eNodeB.mobility.initialX 300m
param *.eNodeB.mobility.initialY 300m
param *.eNodeB.nic.phy.enableD2DCqiReporting true
param *.eNodeB.txPower 19952.62315mw
param *.eNodeB.x2App[0].client.connectAddress "\"eNodeB1%x2ppp0\""
param *.eNodeB1.d2dCapable true
param *.eNodeB1.mobility.initFromDisplayString false
param *.eNodeB1.mobility.initialX 700m
param *.eNodeB1.mobility.initialY 300m
param *.eNodeB1.nic.phy.enableD2DCqiReporting true
param *.eNodeB1.txPower 19952.62315mw
param *.eNodeB1.x2App[0].client.connectAddress "\"eNodeB%x2ppp0\""
param *.extCell[*].bandAllocationType "${extAllocType=\"FULL_ALLOC\",\"RANDOM_ALLOC\",\"CONTIGUOUS_ALLOC\"}"
param *.extCell[*].bandUtilization 0.5
param *.extCell[*].txDirection "\"ANISOTROPIC\""
param *.extCell[*].txPower 20
param *.extCell[0].position_x 100m
param *.extCell[0].position_y 600m
param *.extCell[0].txAngle 315
param *.extCell[1].position_x 600m
param *.extCell[1].position_y 600m
param *.extCell[1].txAngle 225
param *.numExtCells 2
param *.numUeCell 0
param *.numUeD2DRx 1
param *.numUeD2DTx 1
param *.ue*.macCellId 1
param *.ue*.masterId 1
param *.ue*.mobility.initFromDisplayString false
param *.ue*[0].macCellId 1
param *.ue*[0].masterId 1
param *.ue*[0].mobility.initFromDisplayString false
param *.ueD2D*.numTcpApps 1
param *.ueD2D*[*].d2dCapable true
param *.ueD2D*[0].d2dCapable false
param *.ueD2D*[0].numTcpApps 1
param *.ueD2DRx[0].mobility.initialX 310m
param *.ueD2DRx[0].mobility.initialY 350m
param *.ueD2DRx[0].tcpApp[*].localPort 1000
param *.ueD2DRx[0].tcpApp[*].typename "\"TCPSinkApp\""
param *.ueD2DTx*.nic.d2dPeerAddresses "\"ueD2DTx[1]\""
param *.ueD2DTx*.tcpApp[*].connectAddress "\"ueD2DTx[0]\""
param *.ueD2DTx*.tcpApp[*].localAddress "\"ueD2DTx\""
param *.ueD2DTx*.tcpApp[*].localPort 1000
param *.ueD2DTx*.tcpApp[*].sendBytes 1GiB
param *.ueD2DTx*.tcpApp[*].typename "\"TCPSessionApp\""
param *.ueD2DTx*.tcpApp[0].active true
param *.ueD2DTx*.tcpApp[0].connectPort 1000
param *.ueD2DTx*.tcpApp[0].tOpen uniform(0.010s,0.1s)
param *.ueD2DTx*.tcpApp[0].tSend uniform(0.15s,0.5s)
param *.ueD2DTx[0].mobility.initialX 290m
param *.ueD2DTx[0].mobility.initialY 350m
param *.ueD2DTx[0].tcpApp[*].localPort 1000
param *.ueD2DTx[0].tcpApp[*].sendBytes 1GiB
param *.ueD2DTx[0].tcpApp[*].typename "\"TCPSessionApp\""
param *.ueD2DTx[0].tcpApp[0].active true
param *.ueD2DTx[0].tcpApp[0].connectAddress "\"ueD2DRx[0]\""
param *.ueD2DTx[0].tcpApp[0].connectPort 1000
param *.ueD2DTx[0].tcpApp[0].localAddress "\"ueD2DTx[0]\""
param *.ueD2DTx[0].tcpApp[0].tOpen uniform(0.010s,0.1s)
param *.ueD2DTx[0].tcpApp[0].tSend uniform(0.15s,0.5s)
param *.ueD2DTx[1].mobility.initialX 690m
param *.ueD2DTx[1].mobility.initialY 250m

vector 8  CAIN.server.ppp[0].queue  queueLength:vector  ETV
attr interpolationmode  sample-hold
attr title  "queue length, vector"
vector 9  CAIN.server.ppp[0].ppp  txState:vector  ETV
attr interpolationmode  sample-hold
attr title  "tx state, vector"
vector 24  CAIN.router.ppp[0].queue  queueLength:vector  ETV
attr interpolationmode  sample-hold
attr title  "queue length, vector"
vector 25  CAIN.router.ppp[0].ppp  txState:vector  ETV
attr interpolationmode  sample-hold
attr title  "tx state, vector"
vector 35  CAIN.router.ppp[1].queue  queueLength:vector  ETV
attr interpolationmode  sample-hold
attr title  "queue length, vector"
vector 36  CAIN.router.ppp[1].ppp  txState:vector  ETV
attr interpolationmode  sample-hold
attr title  "tx state, vector"
vector 56  CAIN.pgw.ppp[0].queue  queueLength:vector  ETV
attr interpolationmode  sample-hold
attr title  "queue length, vector"
vector 57  CAIN.pgw.ppp[0].ppp  txState:vector  ETV
attr interpolationmode  sample-hold
attr title  "tx state, vector"
vector 67  CAIN.pgw.ppp[1].queue  queueLength:vector  ETV
attr interpolationmode  sample-hold
attr title  "queue length, vector"
vector 68  CAIN.pgw.ppp[1].ppp  txState:vector  ETV
attr interpolationmode  sample-hold
attr title  "tx state, vector"
vector 78  CAIN.pgw.pppInterface.queue  queueLength:vector  ETV
attr interpolationmode  sample-hold
attr title  "queue length, vector"
vector 79  CAIN.pgw.pppInterface.ppp  txState:vector  ETV
attr interpolationmode  sample-hold
attr title  "tx state, vector"
vector 120  CAIN.eNodeB.pppIf.queue  queueLength:vector  ETV
attr interpolationmode  sample-hold
attr title  "queue length, vector"
vector 121  CAIN.eNodeB.pppIf.ppp  txState:vector  ETV
attr interpolationmode  sample-hold
attr title  "tx state, vector"
vector 131  CAIN.eNodeB.x2ppp[0].queue  queueLength:vector  ETV
attr interpolationmode  sample-hold
attr title  "queue length, vector"
vector 132  CAIN.eNodeB.x2ppp[0].ppp  txState:vector  ETV
attr interpolationmode  sample-hold
attr title  "tx state, vector"
vector 178  CAIN.eNodeB1.pppIf.queue  queueLength:vector  ETV
attr interpolationmode  sample-hold
attr title  "queue length, vector"
vector 179  CAIN.eNodeB1.pppIf.ppp  txState:vector  ETV
attr interpolationmode  sample-hold
attr title  "tx state, vector"
vector 189  CAIN.eNodeB1.x2ppp[0].queue  queueLength:vector  ETV
attr interpolationmode  sample-hold
attr title  "queue length, vector"
vector 190  CAIN.eNodeB1.x2ppp[0].ppp  txState:vector  ETV
attr interpolationmode  sample-hold
attr title  "tx state, vector"
vector 231  CAIN.ueD2DTx[0].nic.phy  servingCell:vector  ETV
attr source  servingCell
attr title  "ID of the serving eNodeB for the UE, vector"
attr unit  ""
vector 263  CAIN.ueD2DTx[1].nic.phy  servingCell:vector  ETV
attr source  servingCell
attr title  "ID of the serving eNodeB for the UE, vector"
attr unit  ""
vector 295  CAIN.ueD2DTx[2].nic.phy  servingCell:vector  ETV
attr source  servingCell
attr title  "ID of the serving eNodeB for the UE, vector"
attr unit  ""
vector 327  CAIN.ueD2DTx[3].nic.phy  servingCell:vector  ETV
attr source  servingCell
attr title  "ID of the serving eNodeB for the UE, vector"
attr unit  ""
vector 359  CAIN.ueD2DTx[4].nic.phy  servingCell:vector  ETV
attr source  servingCell
attr title  "ID of the serving eNodeB for the UE, vector"
attr unit  ""
vector 391  CAIN.ueD2DTx[5].nic.phy  servingCell:vector  ETV
attr source  servingCell
attr title  "ID of the serving eNodeB for the UE, vector"
attr unit  ""
vector 423  CAIN.ueD2DTx[6].nic.phy  servingCell:vector  ETV
attr source  servingCell
attr title  "ID of the serving eNodeB for the UE, vector"
attr unit  ""
vector 455  CAIN.ueD2DTx[7].nic.phy  servingCell:vector  ETV
attr source  servingCell
attr title  "ID of the serving eNodeB for the UE, vector"
attr unit  ""
vector 487  CAIN.ueD2DTx[8].nic.phy  servingCell:vector  ETV
attr source  servingCell
attr title  "ID of the serving eNodeB for the UE, vector"
attr unit  ""
vector 519  CAIN.ueD2DTx[9].nic.phy  servingCell:vector  ETV
attr source  servingCell
attr title  "ID of the serving eNodeB for the UE, vector"
attr unit  ""
vector 551  CAIN.ueD2DTx[10].nic.phy  servingCell:vector  ETV
attr source  servingCell
attr title  "ID of the serving eNodeB for the UE, vector"
attr unit  ""
vector 583  CAIN.ueD2DTx[11].nic.phy  servingCell:vector  ETV
attr source  servingCell
attr title  "ID of the serving eNodeB for the UE, vector"
attr unit  ""
vector 615  CAIN.ueD2DTx[12].nic.phy  servingCell:vector  ETV
attr source  servingCell
attr title  "ID of the serving eNodeB for the UE, vector"
attr unit  ""
vector 647  CAIN.ueD2DTx[13].nic.phy  servingCell:vector  ETV
attr source  servingCell
attr title  "ID of the serving eNodeB for the UE, vector"
attr unit  ""
vector 679  CAIN.ueD2DTx[14].nic.phy  servingCell:vector  ETV
attr source  servingCell
attr title  "ID of the serving eNodeB for the UE, vector"
attr unit  ""
vector 711  CAIN.ueD2DTx[15].nic.phy  servingCell:vector  ETV
attr source  servingCell
attr title  "ID of the serving eNodeB for the UE, vector"
attr unit  ""
vector 743  CAIN.ueD2DTx[16].nic.phy  servingCell:vector  ETV
attr source  servingCell
attr title  "ID of the serving eNodeB for the UE, vector"
attr unit  ""
vector 775  CAIN.ueD2DTx[17].nic.phy  servingCell:vector  ETV
attr source  servingCell
attr title  "ID of the serving eNodeB for the UE, vector"
attr unit  ""
vector 807  CAIN.ueD2DTx[18].nic.phy  servingCell:vector  ETV
attr source  servingCell
attr title  "ID of the serving eNodeB for the UE, vector"
attr unit  ""
vector 839  CAIN.ueD2DTx[19].nic.phy  servingCell:vector  ETV
attr source  servingCell
attr title  "ID of the serving eNodeB for the UE, vector"
attr unit  ""
vector 863  CAIN.eNodeB.sctp  "Throughput of Association 3"  ETV
vector 885  CAIN.eNodeB1.sctp  "Throughput of Association 4"  ETV
vector 907  CAIN.eNodeB.sctp  "Throughput of Association 1"  ETV
vector 927  CAIN.eNodeB.sctp  "Fast Recovery State 1:10.0.5.2"  ETV
vector 956  CAIN.eNodeB1.sctp  "Throughput of Association 2"  ETV
vector 976  CAIN.eNodeB1.sctp  "Fast Recovery State 2:10.0.5.1"  ETV
vector 128  CAIN.eNodeB.x2ppp[0].queue  rcvdPk:vector(packetBytes)  ETV
attr interpolationmode  none
attr title  "received packets, vector(packetBytes)"
vector 130  CAIN.eNodeB.x2ppp[0].queue  queueingTime:vector  ETV
attr interpolationmode  none
attr title  "queueing time, vector"
vector 186  CAIN.eNodeB1.x2ppp[0].queue  rcvdPk:vector(packetBytes)  ETV
attr interpolationmode  none
attr title  "received packets, vector(packetBytes)"
vector 188  CAIN.eNodeB1.x2ppp[0].queue  queueingTime:vector  ETV
attr interpolationmode  none
attr title  "queueing time, vector"
vector 137  CAIN.eNodeB.x2ppp[0].ppp  rcvdPkFromHL:vector(packetBytes)  ETV
attr interpolationmode  none
attr source  packetReceivedFromUpper
attr title  "packets received from higher layer, vector(packetBytes)"
vector 133  CAIN.eNodeB.x2ppp[0].ppp  txPk:vector(packetBytes)  ETV
attr interpolationmode  none
attr source  packetSentToLower
attr title  "packets transmitted, vector(packetBytes)"
vector 195  CAIN.eNodeB1.x2ppp[0].ppp  rcvdPkFromHL:vector(packetBytes)  ETV
attr interpolationmode  none
attr source  packetReceivedFromUpper
attr title  "packets received from higher layer, vector(packetBytes)"
vector 191  CAIN.eNodeB1.x2ppp[0].ppp  txPk:vector(packetBytes)  ETV
attr interpolationmode  none
attr source  packetSentToLower
attr title  "packets transmitted, vector(packetBytes)"
vector 192  CAIN.eNodeB1.x2ppp[0].ppp  rxPkOk:vector(packetBytes)  ETV
attr interpolationmode  none
attr source  rxPkOk
attr title  "packets received OK, vector(packetBytes)"
vector 196  CAIN.eNodeB1.x2ppp[0].ppp  passedUpPk:vector(packetBytes)  ETV
attr interpolationmode  none
attr source  packetSentToUpper
attr title  "packets passed to higher layer, vector(packetBytes)"
vector 134  CAIN.eNodeB.x2ppp[0].ppp  rxPkOk:vector(packetBytes)  ETV
attr interpolationmode  none
attr source  rxPkOk
attr title  "packets received OK, vector(packetBytes)"
vector 138  CAIN.eNodeB.x2ppp[0].ppp  passedUpPk:vector(packetBytes)  ETV
attr interpolationmode  none
attr source  packetSentToUpper
attr title  "packets passed to higher layer, vector(packetBytes)"
vector 1005  CAIN.eNodeB1.sctp  "Throughput of Association 4"  ETV
vector 882  CAIN.eNodeB1.sctp  "Peer Rwnd 4"  ETV
vector 1025  CAIN.eNodeB1.sctp  "Fast Recovery State 5:10.0.4.1"  ETV
vector 1052  CAIN.eNodeB1.sctp  "Fast Recovery State 5:10.0.2.2"  ETV
vector 1079  CAIN.eNodeB1.sctp  "Fast Recovery State 5:10.0.5.1"  ETV
vector 1108  CAIN.eNodeB.sctp  "Throughput of Association 3"  ETV
vector 860  CAIN.eNodeB.sctp  "Peer Rwnd 3"  ETV
vector 1128  CAIN.eNodeB.sctp  "Fast Recovery State 6:10.0.4.2"  ETV
vector 1155  CAIN.eNodeB.sctp  "Fast Recovery State 6:10.0.3.2"  ETV
vector 1182  CAIN.eNodeB.sctp  "Fast Recovery State 6:10.0.5.2"  ETV
vector 904  CAIN.eNodeB.sctp  "Peer Rwnd 1"  ETV
vector 1209  CAIN.eNodeB.sctp  "Fast Recovery State 1:10.0.4.2"  ETV
vector 1236  CAIN.eNodeB.sctp  "Fast Recovery State 1:10.0.3.2"  ETV
vector 953  CAIN.eNodeB1.sctp  "Peer Rwnd 2"  ETV
vector 1263  CAIN.eNodeB1.sctp  "Fast Recovery State 2:10.0.4.1"  ETV
vector 1290  CAIN.eNodeB1.sctp  "Fast Recovery State 2:10.0.2.2"  ETV
vector 1035  CAIN.eNodeB1.sctp  "Slow Start Threshold 5:10.0.2.2"  ETV
vector 1036  CAIN.eNodeB1.sctp  "Congestion Window 5:10.0.2.2"  ETV
vector 1037  CAIN.eNodeB1.sctp  "Bandwidth 5:10.0.2.2"  ETV
vector 1040  CAIN.eNodeB1.sctp  "HB Sent 5:10.0.2.2"  ETV
vector 1033  CAIN.eNodeB1.sctp  "RTO 5:10.0.2.2"  ETV
vector 1008  CAIN.eNodeB1.sctp  "Slow Start Threshold 5:10.0.4.1"  ETV
vector 1009  CAIN.eNodeB1.sctp  "Congestion Window 5:10.0.4.1"  ETV
vector 1010  CAIN.eNodeB1.sctp  "Bandwidth 5:10.0.4.1"  ETV
vector 1013  CAIN.eNodeB1.sctp  "HB Sent 5:10.0.4.1"  ETV
vector 1006  CAIN.eNodeB1.sctp  "RTO 5:10.0.4.1"  ETV
vector 1062  CAIN.eNodeB1.sctp  "Slow Start Threshold 5:10.0.5.1"  ETV
vector 1063  CAIN.eNodeB1.sctp  "Congestion Window 5:10.0.5.1"  ETV
vector 1064  CAIN.eNodeB1.sctp  "Bandwidth 5:10.0.5.1"  ETV
vector 1060  CAIN.eNodeB1.sctp  "RTO 5:10.0.5.1"  ETV
vector 1138  CAIN.eNodeB.sctp  "Slow Start Threshold 6:10.0.3.2"  ETV
vector 1139  CAIN.eNodeB.sctp  "Congestion Window 6:10.0.3.2"  ETV
vector 1140  CAIN.eNodeB.sctp  "Bandwidth 6:10.0.3.2"  ETV
vector 1143  CAIN.eNodeB.sctp  "HB Sent 6:10.0.3.2"  ETV
vector 1136  CAIN.eNodeB.sctp  "RTO 6:10.0.3.2"  ETV
vector 1111  CAIN.eNodeB.sctp  "Slow Start Threshold 6:10.0.4.2"  ETV
vector 1112  CAIN.eNodeB.sctp  "Congestion Window 6:10.0.4.2"  ETV
vector 1113  CAIN.eNodeB.sctp  "Bandwidth 6:10.0.4.2"  ETV
vector 1116  CAIN.eNodeB.sctp  "HB Sent 6:10.0.4.2"  ETV
vector 1109  CAIN.eNodeB.sctp  "RTO 6:10.0.4.2"  ETV
vector 1165  CAIN.eNodeB.sctp  "Slow Start Threshold 6:10.0.5.2"  ETV
vector 1166  CAIN.eNodeB.sctp  "Congestion Window 6:10.0.5.2"  ETV
vector 1167  CAIN.eNodeB.sctp  "Bandwidth 6:10.0.5.2"  ETV
vector 1163  CAIN.eNodeB.sctp  "RTO 6:10.0.5.2"  ETV
vector 916  CAIN.eNodeB.sctp  "HB ACK Sent 1:10.0.5.2"  ETV
vector 917  CAIN.eNodeB.sctp  "HB Received 1:10.0.5.2"  ETV
vector 965  CAIN.eNodeB1.sctp  "HB ACK Sent 2:10.0.5.1"  ETV
vector 966  CAIN.eNodeB1.sctp  "HB Received 2:10.0.5.1"  ETV
vector 1219  CAIN.eNodeB.sctp  "Slow Start Threshold 1:10.0.3.2"  ETV
vector 1220  CAIN.eNodeB.sctp  "Congestion Window 1:10.0.3.2"  ETV
vector 1221  CAIN.eNodeB.sctp  "Bandwidth 1:10.0.3.2"  ETV
vector 1224  CAIN.eNodeB.sctp  "HB Sent 1:10.0.3.2"  ETV
vector 1217  CAIN.eNodeB.sctp  "RTO 1:10.0.3.2"  ETV
vector 1192  CAIN.eNodeB.sctp  "Slow Start Threshold 1:10.0.4.2"  ETV
vector 1193  CAIN.eNodeB.sctp  "Congestion Window 1:10.0.4.2"  ETV
vector 1194  CAIN.eNodeB.sctp  "Bandwidth 1:10.0.4.2"  ETV
vector 1197  CAIN.eNodeB.sctp  "HB Sent 1:10.0.4.2"  ETV
vector 1190  CAIN.eNodeB.sctp  "RTO 1:10.0.4.2"  ETV
vector 910  CAIN.eNodeB.sctp  "Slow Start Threshold 1:10.0.5.2"  ETV
vector 911  CAIN.eNodeB.sctp  "Congestion Window 1:10.0.5.2"  ETV
vector 912  CAIN.eNodeB.sctp  "Bandwidth 1:10.0.5.2"  ETV
vector 908  CAIN.eNodeB.sctp  "RTO 1:10.0.5.2"  ETV
vector 1273  CAIN.eNodeB1.sctp  "Slow Start Threshold 2:10.0.2.2"  ETV
vector 1274  CAIN.eNodeB1.sctp  "Congestion Window 2:10.0.2.2"  ETV
vector 1275  CAIN.eNodeB1.sctp  "Bandwidth 2:10.0.2.2"  ETV
vector 1278  CAIN.eNodeB1.sctp  "HB Sent 2:10.0.2.2"  ETV
vector 1271  CAIN.eNodeB1.sctp  "RTO 2:10.0.2.2"  ETV
vector 1246  CAIN.eNodeB1.sctp  "Slow Start Threshold 2:10.0.4.1"  ETV
vector 1247  CAIN.eNodeB1.sctp  "Congestion Window 2:10.0.4.1"  ETV
vector 1248  CAIN.eNodeB1.sctp  "Bandwidth 2:10.0.4.1"  ETV
vector 1251  CAIN.eNodeB1.sctp  "HB Sent 2:10.0.4.1"  ETV
vector 1244  CAIN.eNodeB1.sctp  "RTO 2:10.0.4.1"  ETV
vector 959  CAIN.eNodeB1.sctp  "Slow Start Threshold 2:10.0.5.1"  ETV
vector 960  CAIN.eNodeB1.sctp  "Congestion Window 2:10.0.5.1"  ETV
vector 961  CAIN.eNodeB1.sctp  "Bandwidth 2:10.0.5.1"  ETV
vector 957  CAIN.eNodeB1.sctp  "RTO 2:10.0.5.1"  ETV
vector 1173  CAIN.eNodeB.sctp  "HB ACK Received 6:10.0.5.2"  ETV
vector 1164  CAIN.eNodeB.sctp  "RTT 6:10.0.5.2"  ETV
vector 1070  CAIN.eNodeB1.sctp  "HB ACK Received 5:10.0.5.1"  ETV
vector 1061  CAIN.eNodeB1.sctp  "RTT 5:10.0.5.1"  ETV
vector 1171  CAIN.eNodeB.sctp  "HB ACK Sent 6:10.0.5.2"  ETV
vector 1172  CAIN.eNodeB.sctp  "HB Received 6:10.0.5.2"  ETV
vector 1068  CAIN.eNodeB1.sctp  "HB ACK Sent 5:10.0.5.1"  ETV
vector 1069  CAIN.eNodeB1.sctp  "HB Received 5:10.0.5.1"  ETV
vector 967  CAIN.eNodeB1.sctp  "HB ACK Received 2:10.0.5.1"  ETV
vector 958  CAIN.eNodeB1.sctp  "RTT 2:10.0.5.1"  ETV
vector 918  CAIN.eNodeB.sctp  "HB ACK Received 1:10.0.5.2"  ETV
vector 909  CAIN.eNodeB.sctp  "RTT 1:10.0.5.2"  ETV
vector 96  CAIN.eNodeB.nic.mac  receivedPacketFromLowerLayer:vector(packetBytes)  ETV
attr interpolationmode  none
attr source  receivedPacketFromLowerLayer
vector 1305  CAIN.eNodeB.sctp  "SendQueue of Association 6"  ETV
vector 1168  CAIN.eNodeB.sctp  "TSN Sent 6:10.0.5.2"  ETV
vector 1175  CAIN.eNodeB.sctp  "Outstanding Bytes 6:10.0.5.2"  ETV
vector 848  CAIN.eNodeB.sctp  "Outstanding Bytes 3:Total"  ETV
vector 1174  CAIN.eNodeB.sctp  "Queued Sent Bytes 6:10.0.5.2"  ETV
vector 847  CAIN.eNodeB.sctp  "Queued Sent Bytes 3:Total"  ETV
vector 963  CAIN.eNodeB1.sctp  "TSN Received 2:10.0.5.1"  ETV
vector 939  CAIN.eNodeB1.sctp  "Queued Received Bytes 2:Total"  ETV
vector 935  CAIN.eNodeB1.sctp  "Advertised Receiver Window 2"  ETV
vector 944  CAIN.eNodeB1.sctp  "Number of Total Gap Blocks Stored 2"  ETV
vector 945  CAIN.eNodeB1.sctp  "Number of Revokable Gap Blocks Stored 2"  ETV
vector 946  CAIN.eNodeB1.sctp  "Number of Non-Revokable Gap Blocks Stored 2"  ETV
vector 947  CAIN.eNodeB1.sctp  "Number of Duplicate TSNs Stored 2"  ETV
vector 951  CAIN.eNodeB1.sctp  "Length of SACK Sent 2"  ETV
vector 948  CAIN.eNodeB1.sctp  "Number of Revokable Gap Blocks Sent 2"  ETV
vector 949  CAIN.eNodeB1.sctp  "Number of Non-Revokable Gap Blocks Sent 2"  ETV
vector 950  CAIN.eNodeB1.sctp  "Number of Duplicate TSNs Sent 2"  ETV
vector 955  CAIN.eNodeB1.sctp  "End to End Delay of Association 2"  ETV
vector 199  CAIN.eNodeB1.x2App[0].client  rcvdPk:vector(packetBytes)  ETV
attr interpolationmode  none
attr source  rcvdPk
attr title  "packets received, vector(packetBytes)"
vector 1304  CAIN.eNodeB.sctp  "Number of Gap Blocks in Last SACK of Association 6"  ETV
vector 849  CAIN.eNodeB.sctp  "Number of Revokable Gap Blocks in SACK 3"  ETV
vector 850  CAIN.eNodeB.sctp  "Number of Non-Revokable Gap Blocks in SACK 3"  ETV
vector 1185  CAIN.eNodeB.sctp  "TSN Acked CumAck 6:10.0.5.2"  ETV
vector 1151  CAIN.eNodeB.sctp  "Number of Gap Acked Chunks in Last SACK 6:10.0.3.2"  ETV
vector 1152  CAIN.eNodeB.sctp  "Number of Non-Revokable Gap Acked Chunks in Last SACK 6:10.0.3.2"  ETV
vector 1153  CAIN.eNodeB.sctp  "Number of Gap Missed Chunks in Last SACK 6:10.0.3.2"  ETV
vector 1124  CAIN.eNodeB.sctp  "Number of Gap Acked Chunks in Last SACK 6:10.0.4.2"  ETV
vector 1125  CAIN.eNodeB.sctp  "Number of Non-Revokable Gap Acked Chunks in Last SACK 6:10.0.4.2"  ETV
vector 1126  CAIN.eNodeB.sctp  "Number of Gap Missed Chunks in Last SACK 6:10.0.4.2"  ETV
vector 1178  CAIN.eNodeB.sctp  "Number of Gap Acked Chunks in Last SACK 6:10.0.5.2"  ETV
vector 1179  CAIN.eNodeB.sctp  "Number of Non-Revokable Gap Acked Chunks in Last SACK 6:10.0.5.2"  ETV
vector 1180  CAIN.eNodeB.sctp  "Number of Gap Missed Chunks in Last SACK 6:10.0.5.2"  ETV
vector 859  CAIN.eNodeB.sctp  "Arwnd in Last SACK 3"  ETV
vector 1187  CAIN.eNodeB.sctp  "TSN PseudoCumAck 6:10.0.5.2"  ETV
vector 1188  CAIN.eNodeB.sctp  "TSN RTXPseudoCumAck 6:10.0.5.2"  ETV
vector 1181  CAIN.eNodeB.sctp  "Partial Bytes Acked 6:10.0.5.2"  ETV
vector 1333  CAIN.ueD2DTx[12].tcp  tcpRcvQueueBytes  ETV
vector 1320  CAIN.ueD2DTx[12].tcp  "advertised window"  ETV
vector 1319  CAIN.ueD2DTx[12].tcp  "receive window"  ETV
vector 1322  CAIN.ueD2DTx[12].tcp  "sent ack"  ETV
vector 589  CAIN.ueD2DTx[12].nic.pdcpRrc  receivedPacketFromUpperLayer:vector(packetBytes)  ETV
attr interpolationmode  none
attr source  receivedPacketFromUpperLayer
vector 592  CAIN.ueD2DTx[12].nic.pdcpRrc  sentPacketToLowerLayer:vector(packetBytes)  ETV
attr interpolationmode  none
attr source  sentPacketToLowerLayer
vector 593  CAIN.ueD2DTx[12].nic.mac  receivedPacketFromUpperLayer:vector(packetBytes)  ETV
attr interpolationmode  none
attr source  receivedPacketFromUpperLayer
vector 603  CAIN.ueD2DTx[12].nic.mac  CainHopMessageSent:vector  ETV
attr interpolationmode  none
attr title  "# of Sent CAIN hop message, vector"
vector 596  CAIN.ueD2DTx[12].nic.mac  sentPacketToLowerLayer:vector(packetBytes)  ETV
attr interpolationmode  none
attr source  sentPacketToLowerLayer
vector 210  CAIN.ueD2DTx[0].nic.mac  receivedPacketFromLowerLayer:vector(packetBytes)  ETV
attr interpolationmode  none
attr source  receivedPacketFromLowerLayer
vector 212  CAIN.ueD2DTx[0].nic.mac  sentPacketToLowerLayer:vector(packetBytes)  ETV
attr interpolationmode  none
attr source  sentPacketToLowerLayer
vector 242  CAIN.ueD2DTx[1].nic.mac  receivedPacketFromLowerLayer:vector(packetBytes)  ETV
attr interpolationmode  none
attr source  receivedPacketFromLowerLayer
vector 244  CAIN.ueD2DTx[1].nic.mac  sentPacketToLowerLayer:vector(packetBytes)  ETV
attr interpolationmode  none
attr source  sentPacketToLowerLayer
vector 1357  CAIN.ueD2DTx[10].tcp  tcpRcvQueueBytes  ETV
vector 1344  CAIN.ueD2DTx[10].tcp  "advertised window"  ETV
vector 1343  CAIN.ueD2DTx[10].tcp  "receive window"  ETV
vector 1346  CAIN.ueD2DTx[10].tcp  "sent ack"  ETV
vector 525  CAIN.ueD2DTx[10].nic.pdcpRrc  receivedPacketFromUpperLayer:vector(packetBytes)  ETV
attr interpolationmode  none
attr source  receivedPacketFromUpperLayer
vector 528  CAIN.ueD2DTx[10].nic.pdcpRrc  sentPacketToLowerLayer:vector(packetBytes)  ETV
attr interpolationmode  none
attr source  sentPacketToLowerLayer
vector 529  CAIN.ueD2DTx[10].nic.mac  receivedPacketFromUpperLayer:vector(packetBytes)  ETV
attr interpolationmode  none
attr source  receivedPacketFromUpperLayer
vector 532  CAIN.ueD2DTx[10].nic.mac  sentPacketToLowerLayer:vector(packetBytes)  ETV
attr interpolationmode  none
attr source  sentPacketToLowerLayer
vector 111  CAIN.eNodeB.nic.mac  racpkt:vector  ETV
attr interpolationmode  none
attr title  "eNB received racpkt message, vector"
vector 112  CAIN.eNodeB.nic.mac  racDistanceSignal:vector  ETV
attr interpolationmode  none
attr title  "Rac distance to enb, vector"
vector 113  CAIN.eNodeB.nic.mac  racServedDevsSignal:vector  ETV
attr interpolationmode  none
attr title  "# of devices served on rac arriavall, vector"
vector 106  CAIN.eNodeB.nic.mac  DistanceSignal:vector  ETV
attr interpolationmode  none
attr title  "Distance to enb, vector"
vector 101  CAIN.eNodeB.nic.mac  CainHopMessage:vector  ETV
attr interpolationmode  none
attr title  "eNB received CAIN hop message, vector"
vector 98  CAIN.eNodeB.nic.mac  sentPacketToLowerLayer:vector(packetBytes)  ETV
attr interpolationmode  none
attr source  sentPacketToLowerLayer
vector 249  CAIN.ueD2DTx[1].nic.mac  DropedHopMessage:vector  ETV
attr interpolationmode  none
attr title  "Droped Hop CAIN message due to RB not available, vector"
vector 530  CAIN.ueD2DTx[10].nic.mac  receivedPacketFromLowerLayer:vector(packetBytes)  ETV
attr interpolationmode  none
attr source  receivedPacketFromLowerLayer
vector 1381  CAIN.ueD2DTx[3].tcp  tcpRcvQueueBytes  ETV
vector 1368  CAIN.ueD2DTx[3].tcp  "advertised window"  ETV
vector 1367  CAIN.ueD2DTx[3].tcp  "receive window"  ETV
vector 1370  CAIN.ueD2DTx[3].tcp  "sent ack"  ETV
vector 301  CAIN.ueD2DTx[3].nic.pdcpRrc  receivedPacketFromUpperLayer:vector(packetBytes)  ETV
attr interpolationmode  none
attr source  receivedPacketFromUpperLayer
vector 304  CAIN.ueD2DTx[3].nic.pdcpRrc  sentPacketToLowerLayer:vector(packetBytes)  ETV
attr interpolationmode  none
attr source  sentPacketToLowerLayer
vector 305  CAIN.ueD2DTx[3].nic.mac  receivedPacketFromUpperLayer:vector(packetBytes)  ETV
attr interpolationmode  none
attr source  receivedPacketFromUpperLayer
vector 315  CAIN.ueD2DTx[3].nic.mac  CainHopMessageSent:vector  ETV
attr interpolationmode  none
attr title  "# of Sent CAIN hop message, vector"
vector 308  CAIN.ueD2DTx[3].nic.mac  sentPacketToLowerLayer:vector(packetBytes)  ETV
attr interpolationmode  none
attr source  sentPacketToLowerLayer
vector 531  CAIN.ueD2DTx[10].nic.mac  sentPacketToUpperLayer:vector(packetBytes)  ETV
attr interpolationmode  none
attr source  sentPacketToUpperLayer
vector 115  CAIN.eNodeB.nic.phy  averageCqiUlvect:vector  ETV
attr source  averageCqiUlvect
attr title  "Average Cqi reported in UL, vector"
attr unit  cqi
vector 1405  CAIN.ueD2DTx[19].tcp  tcpRcvQueueBytes  ETV
vector 1392  CAIN.ueD2DTx[19].tcp  "advertised window"  ETV
vector 1391  CAIN.ueD2DTx[19].tcp  "receive window"  ETV
vector 1394  CAIN.ueD2DTx[19].tcp  "sent ack"  ETV
vector 813  CAIN.ueD2DTx[19].nic.pdcpRrc  receivedPacketFromUpperLayer:vector(packetBytes)  ETV
attr interpolationmode  none
attr source  receivedPacketFromUpperLayer
vector 816  CAIN.ueD2DTx[19].nic.pdcpRrc  sentPacketToLowerLayer:vector(packetBytes)  ETV
attr interpolationmode  none
attr source  sentPacketToLowerLayer
vector 817  CAIN.ueD2DTx[19].nic.mac  receivedPacketFromUpperLayer:vector(packetBytes)  ETV
attr interpolationmode  none
attr source  receivedPacketFromUpperLayer
vector 820  CAIN.ueD2DTx[19].nic.mac  sentPacketToLowerLayer:vector(packetBytes)  ETV
attr interpolationmode  none
attr source  sentPacketToLowerLayer
vector 99  CAIN.eNodeB.nic.mac  measuredItbs:vector  ETV
attr source  measuredItbs
attr title  "TBS index, vector"
attr unit  ""
vector 818  CAIN.ueD2DTx[19].nic.mac  receivedPacketFromLowerLayer:vector(packetBytes)  ETV
attr interpolationmode  none
attr source  receivedPacketFromLowerLayer
vector 1429  CAIN.ueD2DTx[16].tcp  tcpRcvQueueBytes  ETV
vector 1416  CAIN.ueD2DTx[16].tcp  "advertised window"  ETV
vector 1415  CAIN.ueD2DTx[16].tcp  "receive window"  ETV
vector 1418  CAIN.ueD2DTx[16].tcp  "sent ack"  ETV
vector 717  CAIN.ueD2DTx[16].nic.pdcpRrc  receivedPacketFromUpperLayer:vector(packetBytes)  ETV
attr interpolationmode  none
attr source  receivedPacketFromUpperLayer
vector 720  CAIN.ueD2DTx[16].nic.pdcpRrc  sentPacketToLowerLayer:vector(packetBytes)  ETV
attr interpolationmode  none
attr source  sentPacketToLowerLayer
vector 721  CAIN.ueD2DTx[16].nic.mac  receivedPacketFromUpperLayer:vector(packetBytes)  ETV
attr interpolationmode  none
attr source  receivedPacketFromUpperLayer
vector 731  CAIN.ueD2DTx[16].nic.mac  CainHopMessageSent:vector  ETV
attr interpolationmode  none
attr title  "# of Sent CAIN hop message, vector"
vector 724  CAIN.ueD2DTx[16].nic.mac  sentPacketToLowerLayer:vector(packetBytes)  ETV
attr interpolationmode  none
attr source  sentPacketToLowerLayer
vector 819  CAIN.ueD2DTx[19].nic.mac  sentPacketToUpperLayer:vector(packetBytes)  ETV
attr interpolationmode  none
attr source  sentPacketToUpperLayer
vector 97  CAIN.eNodeB.nic.mac  sentPacketToUpperLayer:vector(packetBytes)  ETV
attr interpolationmode  none
attr source  sentPacketToUpperLayer
vector 92  CAIN.eNodeB.nic.pdcpRrc  receivedPacketFromLowerLayer:vector(packetBytes)  ETV
attr interpolationmode  none
attr source  receivedPacketFromLowerLayer
vector 93  CAIN.eNodeB.nic.pdcpRrc  sentPacketToUpperLayer:vector(packetBytes)  ETV
attr interpolationmode  none
attr source  sentPacketToUpperLayer
vector 91  CAIN.eNodeB.nic.pdcpRrc  receivedPacketFromUpperLayer:vector(packetBytes)  ETV
attr interpolationmode  none
attr source  receivedPacketFromUpperLayer
vector 94  CAIN.eNodeB.nic.pdcpRrc  sentPacketToLowerLayer:vector(packetBytes)  ETV
attr interpolationmode  none
attr source  sentPacketToLowerLayer
vector 95  CAIN.eNodeB.nic.mac  receivedPacketFromUpperLayer:vector(packetBytes)  ETV
attr interpolationmode  none
attr source  receivedPacketFromUpperLayer
vector 1453  CAIN.ueD2DTx[5].tcp  tcpRcvQueueBytes  ETV
vector 1440  CAIN.ueD2DTx[5].tcp  "advertised window"  ETV
vector 1439  CAIN.ueD2DTx[5].tcp  "receive window"  ETV
vector 1442  CAIN.ueD2DTx[5].tcp  "sent ack"  ETV
vector 365  CAIN.ueD2DTx[5].nic.pdcpRrc  receivedPacketFromUpperLayer:vector(packetBytes)  ETV
attr interpolationmode  none
attr source  receivedPacketFromUpperLayer
vector 368  CAIN.ueD2DTx[5].nic.pdcpRrc  sentPacketToLowerLayer:vector(packetBytes)  ETV
attr interpolationmode  none
attr source  sentPacketToLowerLayer
vector 369  CAIN.ueD2DTx[5].nic.mac  receivedPacketFromUpperLayer:vector(packetBytes)  ETV
attr interpolationmode  none
attr source  receivedPacketFromUpperLayer
vector 379  CAIN.ueD2DTx[5].nic.mac  CainHopMessageSent:vector  ETV
attr interpolationmode  none
attr title  "# of Sent CAIN hop message, vector"
vector 372  CAIN.ueD2DTx[5].nic.mac  sentPacketToLowerLayer:vector(packetBytes)  ETV
attr interpolationmode  none
attr source  sentPacketToLowerLayer
vector 228  CAIN.ueD2DTx[0].nic.phy  averageCqiDlvect:vector  ETV
attr source  averageCqiDlvect
attr title  "Average Cqi reported in DL, vector"
attr unit  cqi
vector 211  CAIN.ueD2DTx[0].nic.mac  sentPacketToUpperLayer:vector(packetBytes)  ETV
attr interpolationmode  none
attr source  sentPacketToUpperLayer
vector 206  CAIN.ueD2DTx[0].nic.pdcpRrc  receivedPacketFromLowerLayer:vector(packetBytes)  ETV
attr interpolationmode  none
attr source  receivedPacketFromLowerLayer
vector 207  CAIN.ueD2DTx[0].nic.pdcpRrc  sentPacketToUpperLayer:vector(packetBytes)  ETV
attr interpolationmode  none
attr source  sentPacketToUpperLayer
vector 1477  CAIN.ueD2DTx[13].tcp  tcpRcvQueueBytes  ETV
vector 1464  CAIN.ueD2DTx[13].tcp  "advertised window"  ETV
vector 1463  CAIN.ueD2DTx[13].tcp  "receive window"  ETV
vector 1466  CAIN.ueD2DTx[13].tcp  "sent ack"  ETV
vector 621  CAIN.ueD2DTx[13].nic.pdcpRrc  receivedPacketFromUpperLayer:vector(packetBytes)  ETV
attr interpolationmode  none
attr source  receivedPacketFromUpperLayer
vector 624  CAIN.ueD2DTx[13].nic.pdcpRrc  sentPacketToLowerLayer:vector(packetBytes)  ETV
attr interpolationmode  none
attr source  sentPacketToLowerLayer
vector 625  CAIN.ueD2DTx[13].nic.mac  receivedPacketFromUpperLayer:vector(packetBytes)  ETV
attr interpolationmode  none
attr source  receivedPacketFromUpperLayer
vector 635  CAIN.ueD2DTx[13].nic.mac  CainHopMessageSent:vector  ETV
attr interpolationmode  none
attr title  "# of Sent CAIN hop message, vector"
vector 628  CAIN.ueD2DTx[13].nic.mac  sentPacketToLowerLayer:vector(packetBytes)  ETV
attr interpolationmode  none
attr source  sentPacketToLowerLayer
vector 1501  CAIN.ueD2DTx[11].tcp  tcpRcvQueueBytes  ETV
vector 1488  CAIN.ueD2DTx[11].tcp  "advertised window"  ETV
vector 1487  CAIN.ueD2DTx[11].tcp  "receive window"  ETV
vector 1490  CAIN.ueD2DTx[11].tcp  "sent ack"  ETV
vector 557  CAIN.ueD2DTx[11].nic.pdcpRrc  receivedPacketFromUpperLayer:vector(packetBytes)  ETV
attr interpolationmode  none
attr source  receivedPacketFromUpperLayer
vector 560  CAIN.ueD2DTx[11].nic.pdcpRrc  sentPacketToLowerLayer:vector(packetBytes)  ETV
attr interpolationmode  none
attr source  sentPacketToLowerLayer
vector 561  CAIN.ueD2DTx[11].nic.mac  receivedPacketFromUpperLayer:vector(packetBytes)  ETV
attr interpolationmode  none
attr source  receivedPacketFromUpperLayer
vector 1525  CAIN.ueD2DTx[8].tcp  tcpRcvQueueBytes  ETV
vector 1512  CAIN.ueD2DTx[8].tcp  "advertised window"  ETV
vector 1511  CAIN.ueD2DTx[8].tcp  "receive window"  ETV
vector 1514  CAIN.ueD2DTx[8].tcp  "sent ack"  ETV
vector 461  CAIN.ueD2DTx[8].nic.pdcpRrc  receivedPacketFromUpperLayer:vector(packetBytes)  ETV
attr interpolationmode  none
attr source  receivedPacketFromUpperLayer
vector 464  CAIN.ueD2DTx[8].nic.pdcpRrc  sentPacketToLowerLayer:vector(packetBytes)  ETV
attr interpolationmode  none
attr source  sentPacketToLowerLayer
vector 465  CAIN.ueD2DTx[8].nic.mac  receivedPacketFromUpperLayer:vector(packetBytes)  ETV
attr interpolationmode  none
attr source  receivedPacketFromUpperLayer
vector 474  CAIN.ueD2DTx[8].nic.mac  CainMessageSent:vector  ETV
attr interpolationmode  none
attr title  "# of Sent CAIN message, vector"
vector 468  CAIN.ueD2DTx[8].nic.mac  sentPacketToLowerLayer:vector(packetBytes)  ETV
attr interpolationmode  none
attr source  sentPacketToLowerLayer
vector 570  CAIN.ueD2DTx[11].nic.mac  CainMessageSent:vector  ETV
attr interpolationmode  none
attr title  "# of Sent CAIN message, vector"
vector 564  CAIN.ueD2DTx[11].nic.mac  sentPacketToLowerLayer:vector(packetBytes)  ETV
attr interpolationmode  none
attr source  sentPacketToLowerLayer
vector 434  CAIN.ueD2DTx[7].nic.mac  receivedPacketFromLowerLayer:vector(packetBytes)  ETV
attr interpolationmode  none
attr source  receivedPacketFromLowerLayer
vector 436  CAIN.ueD2DTx[7].nic.mac  sentPacketToLowerLayer:vector(packetBytes)  ETV
attr interpolationmode  none
attr source  sentPacketToLowerLayer
vector 1549  CAIN.ueD2DTx[14].tcp  tcpRcvQueueBytes  ETV
vector 1536  CAIN.ueD2DTx[14].tcp  "advertised window"  ETV
vector 1535  CAIN.ueD2DTx[14].tcp  "receive window"  ETV
vector 1538  CAIN.ueD2DTx[14].tcp  "sent ack"  ETV
vector 653  CAIN.ueD2DTx[14].nic.pdcpRrc  receivedPacketFromUpperLayer:vector(packetBytes)  ETV
attr interpolationmode  none
attr source  receivedPacketFromUpperLayer
vector 656  CAIN.ueD2DTx[14].nic.pdcpRrc  sentPacketToLowerLayer:vector(packetBytes)  ETV
attr interpolationmode  none
attr source  sentPacketToLowerLayer
vector 657  CAIN.ueD2DTx[14].nic.mac  receivedPacketFromUpperLayer:vector(packetBytes)  ETV
attr interpolationmode  none
attr source  receivedPacketFromUpperLayer
vector 667  CAIN.ueD2DTx[14].nic.mac  CainHopMessageSent:vector  ETV
attr interpolationmode  none
attr title  "# of Sent CAIN hop message, vector"
vector 660  CAIN.ueD2DTx[14].nic.mac  sentPacketToLowerLayer:vector(packetBytes)  ETV
attr interpolationmode  none
attr source  sentPacketToLowerLayer
vector 100  CAIN.eNodeB.nic.mac  CainMessage:vector  ETV
attr interpolationmode  none
attr title  "eNB received CAIN message, vector"
vector 1301  CAIN.eNodeB1.sctp  "SendQueue of Association 5"  ETV
vector 1065  CAIN.eNodeB1.sctp  "TSN Sent 5:10.0.5.1"  ETV
vector 1072  CAIN.eNodeB1.sctp  "Outstanding Bytes 5:10.0.5.1"  ETV
vector 870  CAIN.eNodeB1.sctp  "Outstanding Bytes 4:Total"  ETV
vector 1071  CAIN.eNodeB1.sctp  "Queued Sent Bytes 5:10.0.5.1"  ETV
vector 869  CAIN.eNodeB1.sctp  "Queued Sent Bytes 4:Total"  ETV
vector 440  CAIN.ueD2DTx[7].nic.mac  DropedCainMessage:vector  ETV
attr interpolationmode  none
attr title  "Droped CAIN message due to RB not available, vector"
vector 914  CAIN.eNodeB.sctp  "TSN Received 1:10.0.5.2"  ETV
vector 890  CAIN.eNodeB.sctp  "Queued Received Bytes 1:Total"  ETV
vector 886  CAIN.eNodeB.sctp  "Advertised Receiver Window 1"  ETV
vector 895  CAIN.eNodeB.sctp  "Number of Total Gap Blocks Stored 1"  ETV
vector 896  CAIN.eNodeB.sctp  "Number of Revokable Gap Blocks Stored 1"  ETV
vector 897  CAIN.eNodeB.sctp  "Number of Non-Revokable Gap Blocks Stored 1"  ETV
vector 898  CAIN.eNodeB.sctp  "Number of Duplicate TSNs Stored 1"  ETV
vector 902  CAIN.eNodeB.sctp  "Length of SACK Sent 1"  ETV
vector 899  CAIN.eNodeB.sctp  "Number of Revokable Gap Blocks Sent 1"  ETV
vector 900  CAIN.eNodeB.sctp  "Number of Non-Revokable Gap Blocks Sent 1"  ETV
vector 901  CAIN.eNodeB.sctp  "Number of Duplicate TSNs Sent 1"  ETV
vector 906  CAIN.eNodeB.sctp  "End to End Delay of Association 1"  ETV
vector 141  CAIN.eNodeB.x2App[0].client  rcvdPk:vector(packetBytes)  ETV
attr interpolationmode  none
attr source  rcvdPk
attr title  "packets received, vector(packetBytes)"
vector 1300  CAIN.eNodeB1.sctp  "Number of Gap Blocks in Last SACK of Association 5"  ETV
vector 871  CAIN.eNodeB1.sctp  "Number of Revokable Gap Blocks in SACK 4"  ETV
vector 872  CAIN.eNodeB1.sctp  "Number of Non-Revokable Gap Blocks in SACK 4"  ETV
vector 1082  CAIN.eNodeB1.sctp  "TSN Acked CumAck 5:10.0.5.1"  ETV
vector 1048  CAIN.eNodeB1.sctp  "Number of Gap Acked Chunks in Last SACK 5:10.0.2.2"  ETV
vector 1049  CAIN.eNodeB1.sctp  "Number of Non-Revokable Gap Acked Chunks in Last SACK 5:10.0.2.2"  ETV
vector 1050  CAIN.eNodeB1.sctp  "Number of Gap Missed Chunks in Last SACK 5:10.0.2.2"  ETV
vector 1021  CAIN.eNodeB1.sctp  "Number of Gap Acked Chunks in Last SACK 5:10.0.4.1"  ETV
vector 1022  CAIN.eNodeB1.sctp  "Number of Non-Revokable Gap Acked Chunks in Last SACK 5:10.0.4.1"  ETV
vector 1023  CAIN.eNodeB1.sctp  "Number of Gap Missed Chunks in Last SACK 5:10.0.4.1"  ETV
vector 1075  CAIN.eNodeB1.sctp  "Number of Gap Acked Chunks in Last SACK 5:10.0.5.1"  ETV
vector 1076  CAIN.eNodeB1.sctp  "Number of Non-Revokable Gap Acked Chunks in Last SACK 5:10.0.5.1"  ETV
vector 1077  CAIN.eNodeB1.sctp  "Number of Gap Missed Chunks in Last SACK 5:10.0.5.1"  ETV
vector 881  CAIN.eNodeB1.sctp  "Arwnd in Last SACK 4"  ETV
vector 1084  CAIN.eNodeB1.sctp  "TSN PseudoCumAck 5:10.0.5.1"  ETV
vector 1085  CAIN.eNodeB1.sctp  "TSN RTXPseudoCumAck 5:10.0.5.1"  ETV
vector 1078  CAIN.eNodeB1.sctp  "Partial Bytes Acked 5:10.0.5.1"  ETV
vector 108  CAIN.eNodeB.nic.mac  ServedDevs:vector  ETV
attr interpolationmode  none
attr title  "# of devices served on cain forwarding, vector"
vector 1573  CAIN.ueD2DTx[7].tcp  tcpRcvQueueBytes  ETV
vector 1560  CAIN.ueD2DTx[7].tcp  "advertised window"  ETV
vector 1559  CAIN.ueD2DTx[7].tcp  "receive window"  ETV
vector 1562  CAIN.ueD2DTx[7].tcp  "sent ack"  ETV
vector 429  CAIN.ueD2DTx[7].nic.pdcpRrc  receivedPacketFromUpperLayer:vector(packetBytes)  ETV
attr interpolationmode  none
attr source  receivedPacketFromUpperLayer
vector 432  CAIN.ueD2DTx[7].nic.pdcpRrc  sentPacketToLowerLayer:vector(packetBytes)  ETV
attr interpolationmode  none
attr source  sentPacketToLowerLayer
vector 433  CAIN.ueD2DTx[7].nic.mac  receivedPacketFromUpperLayer:vector(packetBytes)  ETV
attr interpolationmode  none
attr source  receivedPacketFromUpperLayer
vector 1597  CAIN.ueD2DTx[2].tcp  tcpRcvQueueBytes  ETV
vector 1584  CAIN.ueD2DTx[2].tcp  "advertised window"  ETV
vector 1583  CAIN.ueD2DTx[2].tcp  "receive window"  ETV
vector 1586  CAIN.ueD2DTx[2].tcp  "sent ack"  ETV
vector 269  CAIN.ueD2DTx[2].nic.pdcpRrc  receivedPacketFromUpperLayer:vector(packetBytes)  ETV
attr interpolationmode  none
attr source  receivedPacketFromUpperLayer
vector 272  CAIN.ueD2DTx[2].nic.pdcpRrc  sentPacketToLowerLayer:vector(packetBytes)  ETV
attr interpolationmode  none
attr source  sentPacketToLowerLayer
vector 273  CAIN.ueD2DTx[2].nic.mac  receivedPacketFromUpperLayer:vector(packetBytes)  ETV
attr interpolationmode  none
attr source  receivedPacketFromUpperLayer
vector 282  CAIN.ueD2DTx[2].nic.mac  CainMessageSent:vector  ETV
attr interpolationmode  none
attr title  "# of Sent CAIN message, vector"
vector 276  CAIN.ueD2DTx[2].nic.mac  sentPacketToLowerLayer:vector(packetBytes)  ETV
attr interpolationmode  none
attr source  sentPacketToLowerLayer
vector 154  CAIN.eNodeB1.nic.mac  receivedPacketFromLowerLayer:vector(packetBytes)  ETV
attr interpolationmode  none
attr source  receivedPacketFromLowerLayer
vector 435  CAIN.ueD2DTx[7].nic.mac  sentPacketToUpperLayer:vector(packetBytes)  ETV
attr interpolationmode  none
attr source  sentPacketToUpperLayer
vector 248  CAIN.ueD2DTx[1].nic.mac  DropedCainMessage:vector  ETV
attr interpolationmode  none
attr title  "Droped CAIN message due to RB not available, vector"
vector 1621  CAIN.ueD2DTx[1].tcp  tcpRcvQueueBytes  ETV
vector 1608  CAIN.ueD2DTx[1].tcp  "advertised window"  ETV
vector 1607  CAIN.ueD2DTx[1].tcp  "receive window"  ETV
vector 1610  CAIN.ueD2DTx[1].tcp  "sent ack"  ETV
vector 237  CAIN.ueD2DTx[1].nic.pdcpRrc  receivedPacketFromUpperLayer:vector(packetBytes)  ETV
attr interpolationmode  none
attr source  receivedPacketFromUpperLayer
vector 240  CAIN.ueD2DTx[1].nic.pdcpRrc  sentPacketToLowerLayer:vector(packetBytes)  ETV
attr interpolationmode  none
attr source  sentPacketToLowerLayer
vector 241  CAIN.ueD2DTx[1].nic.mac  receivedPacketFromUpperLayer:vector(packetBytes)  ETV
attr interpolationmode  none
attr source  receivedPacketFromUpperLayer
vector 1645  CAIN.ueD2DTx[17].tcp  tcpRcvQueueBytes  ETV
vector 1632  CAIN.ueD2DTx[17].tcp  "advertised window"  ETV
vector 1631  CAIN.ueD2DTx[17].tcp  "receive window"  ETV
vector 1634  CAIN.ueD2DTx[17].tcp  "sent ack"  ETV
vector 749  CAIN.ueD2DTx[17].nic.pdcpRrc  receivedPacketFromUpperLayer:vector(packetBytes)  ETV
attr interpolationmode  none
attr source  receivedPacketFromUpperLayer
vector 752  CAIN.ueD2DTx[17].nic.pdcpRrc  sentPacketToLowerLayer:vector(packetBytes)  ETV
attr interpolationmode  none
attr source  sentPacketToLowerLayer
vector 753  CAIN.ueD2DTx[17].nic.mac  receivedPacketFromUpperLayer:vector(packetBytes)  ETV
attr interpolationmode  none
attr source  receivedPacketFromUpperLayer
vector 1669  CAIN.ueD2DTx[6].tcp  tcpRcvQueueBytes  ETV
vector 1656  CAIN.ueD2DTx[6].tcp  "advertised window"  ETV
vector 1655  CAIN.ueD2DTx[6].tcp  "receive window"  ETV
vector 1658  CAIN.ueD2DTx[6].tcp  "sent ack"  ETV
vector 397  CAIN.ueD2DTx[6].nic.pdcpRrc  receivedPacketFromUpperLayer:vector(packetBytes)  ETV
attr interpolationmode  none
attr source  receivedPacketFromUpperLayer
vector 400  CAIN.ueD2DTx[6].nic.pdcpRrc  sentPacketToLowerLayer:vector(packetBytes)  ETV
attr interpolationmode  none
attr source  sentPacketToLowerLayer
vector 401  CAIN.ueD2DTx[6].nic.mac  receivedPacketFromUpperLayer:vector(packetBytes)  ETV
attr interpolationmode  none
attr source  receivedPacketFromUpperLayer
vector 410  CAIN.ueD2DTx[6].nic.mac  CainMessageSent:vector  ETV
attr interpolationmode  none
attr title  "# of Sent CAIN message, vector"
vector 404  CAIN.ueD2DTx[6].nic.mac  sentPacketToLowerLayer:vector(packetBytes)  ETV
attr interpolationmode  none
attr source  sentPacketToLowerLayer
vector 1693  CAIN.ueD2DTx[9].tcp  tcpRcvQueueBytes  ETV
vector 1680  CAIN.ueD2DTx[9].tcp  "advertised window"  ETV
vector 1679  CAIN.ueD2DTx[9].tcp  "receive window"  ETV
vector 1682  CAIN.ueD2DTx[9].tcp  "sent ack"  ETV
vector 493  CAIN.ueD2DTx[9].nic.pdcpRrc  receivedPacketFromUpperLayer:vector(packetBytes)  ETV
attr interpolationmode  none
attr source  receivedPacketFromUpperLayer
vector 496  CAIN.ueD2DTx[9].nic.pdcpRrc  sentPacketToLowerLayer:vector(packetBytes)  ETV
attr interpolationmode  none
attr source  sentPacketToLowerLayer
vector 497  CAIN.ueD2DTx[9].nic.mac  receivedPacketFromUpperLayer:vector(packetBytes)  ETV
attr interpolationmode  none
attr source  receivedPacketFromUpperLayer
vector 506  CAIN.ueD2DTx[9].nic.mac  CainMessageSent:vector  ETV
attr interpolationmode  none
attr title  "# of Sent CAIN message, vector"
vector 500  CAIN.ueD2DTx[9].nic.mac  sentPacketToLowerLayer:vector(packetBytes)  ETV
attr interpolationmode  none
attr source  sentPacketToLowerLayer
vector 1717  CAIN.ueD2DTx[4].tcp  tcpRcvQueueBytes  ETV
vector 1704  CAIN.ueD2DTx[4].tcp  "advertised window"  ETV
vector 1703  CAIN.ueD2DTx[4].tcp  "receive window"  ETV
vector 1706  CAIN.ueD2DTx[4].tcp  "sent ack"  ETV
vector 333  CAIN.ueD2DTx[4].nic.pdcpRrc  receivedPacketFromUpperLayer:vector(packetBytes)  ETV
attr interpolationmode  none
attr source  receivedPacketFromUpperLayer
vector 336  CAIN.ueD2DTx[4].nic.pdcpRrc  sentPacketToLowerLayer:vector(packetBytes)  ETV
attr interpolationmode  none
attr source  sentPacketToLowerLayer
vector 337  CAIN.ueD2DTx[4].nic.mac  receivedPacketFromUpperLayer:vector(packetBytes)  ETV
attr interpolationmode  none
attr source  receivedPacketFromUpperLayer
vector 340  CAIN.ueD2DTx[4].nic.mac  sentPacketToLowerLayer:vector(packetBytes)  ETV
attr interpolationmode  none
attr source  sentPacketToLowerLayer
vector 243  CAIN.ueD2DTx[1].nic.mac  sentPacketToUpperLayer:vector(packetBytes)  ETV
attr interpolationmode  none
attr source  sentPacketToUpperLayer
vector 169  CAIN.eNodeB1.nic.mac  racpkt:vector  ETV
attr interpolationmode  none
attr title  "eNB received racpkt message, vector"
vector 170  CAIN.eNodeB1.nic.mac  racDistanceSignal:vector  ETV
attr interpolationmode  none
attr title  "Rac distance to enb, vector"
vector 171  CAIN.eNodeB1.nic.mac  racServedDevsSignal:vector  ETV
attr interpolationmode  none
attr title  "# of devices served on rac arriavall, vector"
vector 156  CAIN.eNodeB1.nic.mac  sentPacketToLowerLayer:vector(packetBytes)  ETV
attr interpolationmode  none
attr source  sentPacketToLowerLayer
vector 230  CAIN.ueD2DTx[0].nic.phy  averageCqiD2Dvect:vector  ETV
attr source  averageCqiD2Dvect
attr title  "Average Cqi reported in D2D, vector"
attr unit  cqi
vector 338  CAIN.ueD2DTx[4].nic.mac  receivedPacketFromLowerLayer:vector(packetBytes)  ETV
attr interpolationmode  none
attr source  receivedPacketFromLowerLayer
vector 1741  CAIN.ueD2DTx[0].tcp  tcpRcvQueueBytes  ETV
vector 1728  CAIN.ueD2DTx[0].tcp  "advertised window"  ETV
vector 1727  CAIN.ueD2DTx[0].tcp  "receive window"  ETV
vector 1730  CAIN.ueD2DTx[0].tcp  "sent ack"  ETV
vector 205  CAIN.ueD2DTx[0].nic.pdcpRrc  receivedPacketFromUpperLayer:vector(packetBytes)  ETV
attr interpolationmode  none
attr source  receivedPacketFromUpperLayer
vector 208  CAIN.ueD2DTx[0].nic.pdcpRrc  sentPacketToLowerLayer:vector(packetBytes)  ETV
attr interpolationmode  none
attr source  sentPacketToLowerLayer
vector 209  CAIN.ueD2DTx[0].nic.mac  receivedPacketFromUpperLayer:vector(packetBytes)  ETV
attr interpolationmode  none
attr source  receivedPacketFromUpperLayer
vector 218  CAIN.ueD2DTx[0].nic.mac  CainMessageSent:vector  ETV
attr interpolationmode  none
attr title  "# of Sent CAIN message, vector"
vector 1765  CAIN.ueD2DTx[15].tcp  tcpRcvQueueBytes  ETV
vector 1752  CAIN.ueD2DTx[15].tcp  "advertised window"  ETV
vector 1751  CAIN.ueD2DTx[15].tcp  "receive window"  ETV
vector 1754  CAIN.ueD2DTx[15].tcp  "sent ack"  ETV
vector 685  CAIN.ueD2DTx[15].nic.pdcpRrc  receivedPacketFromUpperLayer:vector(packetBytes)  ETV
attr interpolationmode  none
attr source  receivedPacketFromUpperLayer
vector 688  CAIN.ueD2DTx[15].nic.pdcpRrc  sentPacketToLowerLayer:vector(packetBytes)  ETV
attr interpolationmode  none
attr source  sentPacketToLowerLayer
vector 689  CAIN.ueD2DTx[15].nic.mac  receivedPacketFromUpperLayer:vector(packetBytes)  ETV
attr interpolationmode  none
attr source  receivedPacketFromUpperLayer
vector 692  CAIN.ueD2DTx[15].nic.mac  sentPacketToLowerLayer:vector(packetBytes)  ETV
attr interpolationmode  none
attr source  sentPacketToLowerLayer
vector 690  CAIN.ueD2DTx[15].nic.mac  receivedPacketFromLowerLayer:vector(packetBytes)  ETV
attr interpolationmode  none
attr source  receivedPacketFromLowerLayer
vector 1789  CAIN.ueD2DTx[18].tcp  tcpRcvQueueBytes  ETV
vector 1776  CAIN.ueD2DTx[18].tcp  "advertised window"  ETV
vector 1775  CAIN.ueD2DTx[18].tcp  "receive window"  ETV
vector 1778  CAIN.ueD2DTx[18].tcp  "sent ack"  ETV
vector 781  CAIN.ueD2DTx[18].nic.pdcpRrc  receivedPacketFromUpperLayer:vector(packetBytes)  ETV
attr interpolationmode  none
attr source  receivedPacketFromUpperLayer
vector 784  CAIN.ueD2DTx[18].nic.pdcpRrc  sentPacketToLowerLayer:vector(packetBytes)  ETV
attr interpolationmode  none
attr source  sentPacketToLowerLayer
vector 785  CAIN.ueD2DTx[18].nic.mac  receivedPacketFromUpperLayer:vector(packetBytes)  ETV
attr interpolationmode  none
attr source  receivedPacketFromUpperLayer
vector 594  CAIN.ueD2DTx[12].nic.mac  receivedPacketFromLowerLayer:vector(packetBytes)  ETV
attr interpolationmode  none
attr source  receivedPacketFromLowerLayer
vector 173  CAIN.eNodeB1.nic.phy  averageCqiUlvect:vector  ETV
attr source  averageCqiUlvect
attr title  "Average Cqi reported in UL, vector"
attr unit  cqi
8	0	0	0
9	0	0	0
24	0	0	0
25	0	0	0
35	0	0	0
36	0	0	0
56	0	0	0
57	0	0	0
67	0	0	0
68	0	0	0
78	0	0	0
79	0	0	0
91	2168	0.037	44
91	2547	0.043	44
91	4452	0.073	44
92	2163	0.037	45
92	2542	0.043	45
92	4447	0.073	45
93	2163	0.037	44
93	2542	0.043	44
93	4447	0.073	44
94	2168	0.037	45
94	2547	0.043	45
94	4452	0.073	45
95	2171	0.037	45
95	2223	0.038	47
95	2550	0.043	45
95	2594	0.044	47
95	4455	0.073	45
95	4503	0.074	47
96	382	0.002	0
96	385	0.002	0
96	388	0.002	0
96	391	0.002	0
96	394	0.002	0
96	397	0.002	0
96	400	0.002	0
96	403	0.002	0
96	406	0.002	0
96	409	0.002	0
96	412	0.002	0
96	415	0.002	0
96	418	0.002	0
96	421	0.002	0
96	424	0.002	0
96	427	0.002	0
96	430	0.002	0
96	433	0.002	0
96	436	0.002	0
96	439	0.002	0
96	739	0.008	0
96	742	0.008	0
96	745	0.008	0
96	748	0.008	0
96	751	0.008	0
96	754	0.008	0
96	757	0.008	0
96	760	0.008	0
96	763	0.008	0
96	766	0.008	0
96	995	0.014	0
96	998	0.014	0
96	1001	0.014	0
96	1004	0.014	0
96	1007	0.014	0
96	1010	0.014	0
96	1013	0.014	0
96	1016	0.014	0
96	1019	0.014	0
96	1022	0.014	0
96	1260	0.02	0
96	1263	0.02	0
96	1266	0.02	0
96	1269	0.02	0
96	1272	0.02	0
96	1275	0.02	0
96	1278	0.02	0
96	1281	0.02	0
96	1284	0.02	0
96	1287	0.02	0
96	1383	0.023	0
96	1432	0.024	0
96	1552	0.026	0
96	1555	0.026	0
96	1558	0.026	0
96	1561	0.026	0
96	1564	0.026	0
96	1567	0.026	0
96	1570	0.026	0
96	1573	0.026	0
96	1576	0.026	0
96	1579	0.026	0
96	1652	0.028	0
96	1657	0.028	0
96	1695	0.029	0
96	1698	0.029	0
96	1751	0.03	0
96	1877	0.032	0
96	1880	0.032	0
96	1883	0.032	0
96	1886	0.032	0
96	1889	0.032	0
96	1892	0.032	0
96	1895	0.032	0
96	1898	0.032	0
96	1901	0.032	0
96	1904	0.032	0
96	1966	0.033	0
96	1971	0.033	0
96	2004	0.034	0
96	2006	0.034	0
96	2008	0.034	0
96	2040	0.035	0
96	2103	0.036	0
96	2260	0.038	0
96	2263	0.038	0
96	2266	0.038	0
96	2269	0.038	0
96	2272	0.038	0
96	2275	0.038	0
96	2278	0.038	0
96	2281	0.038	0
96	2284	0.038	0
96	2287	0.038	0
96	2299	0.038	0
96	2342	0.039	0
96	2344	0.039	0
96	2376	0.04	0
96	2416	0.041	0
96	2419	0.041	0
96	2583	0.043	0
96	2588	0.043	0
96	2623	0.044	0
96	2626	0.044	0
96	2629	0.044	0
96	2632	0.044	0
96	2635	0.044	0
96	2638	0.044	0
96	2641	0.044	0
96	2644	0.044	0
96	2647	0.044	0
96	2650	0.044	0
96	2661	0.044	0
96	2733	0.046	0
96	2736	0.046	0
96	2845	0.048	0
96	2924	0.049	0
96	2935	0.049	0
96	2967	0.05	0
96	2970	0.05	0
96	2973	0.05	0
96	2976	0.05	0
96	2979	0.05	0
96	2982	0.05	0
96	2985	0.05	0
96	2988	0.05	0
96	2991	0.05	0
96	2994	0.05	0
96	3003	0.05	0
96	3038	0.051	0
96	3041	0.051	0
96	3117	0.053	0
96	3193	0.054	0
96	3287	0.055	0
96	3328	0.056	0
96	3331	0.056	0
96	3334	0.056	0
96	3337	0.056	0
96	3340	0.056	0
96	3343	0.056	0
96	3346	0.056	0
96	3349	0.056	0
96	3352	0.056	0
96	3355	0.056	0
96	3361	0.056	0
96	3364	0.056	0
96	3367	0.056	0
96	3370	0.056	0
96	3562	0.058	0
96	3565	0.058	0
96	3604	0.059	0
96	3607	0.059	0
96	3658	0.06	0
96	3729	0.061	0
96	3732	0.061	0
96	3761	0.062	0
96	3764	0.062	0
96	3767	0.062	0
96	3776	0.062	0
96	3779	0.062	0
96	3782	0.062	0
96	3785	0.062	0
96	3788	0.062	0
96	3791	0.062	0
96	3808	0.062	0
96	3894	0.063	0
96	3897	0.063	0
96	3899	0.063	0
96	3930	0.064	0
96	3960	0.065	0
96	4019	0.066	0
96	4022	0.066	0
96	4125	0.068	0
96	4128	0.068	0
96	4131	0.068	0
96	4140	0.068	0
96	4143	0.068	0
96	4146	0.068	0
96	4149	0.068	0
96	4152	0.068	0
96	4155	0.068	0
96	4172	0.068	0
96	4179	0.068	0
96	4182	0.068	0
96	4185	0.068	0
96	4187	0.068	0
96	4272	0.069	0
96	4321	0.07	0
96	4355	0.071	0
96	4358	0.071	0
96	4413	0.072	0
96	4415	0.072	0
96	4486	0.073	0
96	4489	0.073	0
96	4495	0.073	0
96	4497	0.073	0
96	4534	0.074	0
96	4537	0.074	0
96	4540	0.074	0
96	4549	0.074	0
96	4552	0.074	0
96	4555	0.074	0
96	4558	0.074	0
96	4561	0.074	0
96	4564	0.074	0
96	4581	0.074	0
96	4591	0.074	0
96	4681	0.075	0
96	4731	0.076	0
96	4734	0.076	0
96	4775	0.077	0
96	4777	0.077	0
96	4780	0.077	0
96	4844	0.078	0
96	4855	0.078	0
96	4857	0.078	0
96	4907	0.079	0
96	4912	0.079	0
96	4914	0.079	0
96	4946	0.08	0
96	4949	0.08	0
96	4952	0.08	0
96	4961	0.08	0
96	4964	0.08	0
96	4967	0.08	0
96	4970	0.08	0
96	4973	0.08	0
96	4976	0.08	0
96	4993	0.08	0
96	5002	0.08	0
96	5088	0.081	0
96	5091	0.081	0
96	5126	0.082	0
96	5129	0.082	0
96	5173	0.083	0
96	5182	0.083	0
96	5184	0.083	0
96	5249	0.084	0
96	5251	0.084	0
96	5310	0.085	0
96	5313	0.085	0
96	5342	0.086	0
96	5345	0.086	0
96	5348	0.086	0
96	5357	0.086	0
96	5360	0.086	0
96	5363	0.086	0
96	5366	0.086	0
96	5369	0.086	0
96	5372	0.086	0
96	5389	0.086	0
96	5398	0.086	0
96	5401	0.086	0
96	5486	0.087	0
96	5489	0.087	0
96	5498	0.087	0
96	5527	0.088	0
96	5536	0.088	0
96	5538	0.088	0
96	5574	0.089	0
96	5576	0.089	0
96	5632	0.09	0
96	5635	0.09	0
96	5690	0.091	0
96	5693	0.091	0
96	5725	0.092	0
96	5728	0.092	0
96	5731	0.092	0
96	5740	0.092	0
96	5743	0.092	0
96	5746	0.092	0
96	5749	0.092	0
96	5752	0.092	0
96	5755	0.092	0
96	5772	0.092	0
96	5778	0.092	0
96	5781	0.092	0
96	5790	0.092	0
96	5859	0.093	0
96	5868	0.093	0
96	5870	0.093	0
96	5906	0.094	0
96	5908	0.094	0
96	5944	0.095	0
96	5947	0.095	0
96	6002	0.096	0
96	6005	0.096	0
96	6060	0.097	0
96	6063	0.097	0
96	6072	0.097	0
96	6101	0.098	0
96	6104	0.098	0
96	6107	0.098	0
96	6116	0.098	0
96	6119	0.098	0
96	6122	0.098	0
96	6125	0.098	0
96	6128	0.098	0
96	6131	0.098	0
96	6148	0.098	0
96	6151	0.098	0
96	6160	0.098	0
96	6162	0.098	0
96	6238	0.099	0
96	6240	0.099	0
96	6276	0.1	0
96	6279	0.1	0
96	6314	0.101	0
96	6317	0.101	0
96	6372	0.102	0
96	6375	0.102	0
96	6384	0.102	0
96	6433	0.103	0
96	6442	0.103	0
96	6444	0.103	0
96	6474	0.104	0
96	6477	0.104	0
96	6480	0.104	0
96	6489	0.104	0
96	6492	0.104	0
96	6495	0.104	0
96	6498	0.104	0
96	6501	0.104	0
96	6504	0.104	0
96	6521	0.104	0
96	6530	0.104	0
96	6532	0.104	0
96	6608	0.105	0
96	6611	0.105	0
96	6646	0.106	0
96	6649	0.106	0
96	6684	0.107	0
96	6687	0.107	0
96	6696	0.107	0
96	6745	0.108	0
96	6754	0.108	0
96	6756	0.108	0
96	6812	0.109	0
96	6814	0.109	0
96	6844	0.11	0
96	6847	0.11	0
96	6850	0.11	0
96	6859	0.11	0
96	6862	0.11	0
96	6865	0.11	0
96	6868	0.11	0
96	6871	0.11	0
96	6874	0.11	0
96	6891	0.11	0
96	6900	0.11	0
96	6903	0.11	0
96	6938	0.111	0
96	6941	0.111	0
96	6976	0.112	0
96	6979	0.112	0
96	6988	0.112	0
96	7017	0.113	0
96	7026	0.113	0
96	7028	0.113	0
96	7084	0.114	0
96	7086	0.114	0
96	7142	0.115	0
96	7145	0.115	0
96	7174	0.116	0
96	7177	0.116	0
96	7180	0.116	0
96	7189	0.116	0
96	7192	0.116	0
96	7195	0.116	0
96	7198	0.116	0
96	7201	0.116	0
96	7204	0.116	0
96	7221	0.116	0
96	7230	0.116	0
96	7233	0.116	0
96	7268	0.117	0
96	7271	0.117	0
96	7280	0.117	0
96	7309	0.118	0
96	7318	0.118	0
96	7320	0.118	0
96	7356	0.119	0
96	7358	0.119	0
96	7414	0.12	0
96	7417	0.12	0
96	7472	0.121	0
96	7475	0.121	0
96	7507	0.122	0
96	7510	0.122	0
96	7513	0.122	0
96	7522	0.122	0
96	7525	0.122	0
96	7528	0.122	0
96	7531	0.122	0
96	7534	0.122	0
96	7537	0.122	0
96	7554	0.122	0
96	7560	0.122	0
96	7563	0.122	0
96	7572	0.122	0
96	7601	0.123	0
96	7610	0.123	0
96	7612	0.123	0
96	7648	0.124	0
96	7650	0.124	0
96	7686	0.125	0
96	7689	0.125	0
96	7744	0.126	0
96	7747	0.126	0
96	7802	0.127	0
96	7805	0.127	0
96	7814	0.127	0
96	7843	0.128	0
96	7846	0.128	0
96	7849	0.128	0
96	7858	0.128	0
96	7861	0.128	0
96	7864	0.128	0
96	7867	0.128	0
96	7870	0.128	0
96	7873	0.128	0
96	7890	0.128	0
96	7893	0.128	0
96	7902	0.128	0
96	7904	0.128	0
96	7940	0.129	0
96	7942	0.129	0
96	7978	0.13	0
96	7981	0.13	0
96	8016	0.131	0
96	8019	0.131	0
96	8074	0.132	0
96	8077	0.132	0
96	8086	0.132	0
96	8135	0.133	0
96	8144	0.133	0
96	8146	0.133	0
96	8176	0.134	0
96	8179	0.134	0
96	8182	0.134	0
96	8191	0.134	0
96	8194	0.134	0
96	8197	0.134	0
96	8200	0.134	0
96	8203	0.134	0
96	8206	0.134	0
96	8223	0.134	0
96	8232	0.134	0
96	8234	0.134	0
96	8270	0.135	0
96	8273	0.135	0
96	8308	0.136	0
96	8311	0.136	0
96	8346	0.137	0
96	8349	0.137	0
96	8358	0.137	0
96	8407	0.138	0
96	8416	0.138	0
96	8418	0.138	0
96	8474	0.139	0
96	8476	0.139	0
96	8506	0.14	0
96	8509	0.14	0
96	8512	0.14	0
96	8521	0.14	0
96	8524	0.14	0
96	8527	0.14	0
96	8530	0.14	0
96	8533	0.14	0
96	8536	0.14	0
96	8553	0.14	0
96	8562	0.14	0
96	8565	0.14	0
96	8600	0.141	0
96	8603	0.141	0
96	8638	0.142	0
96	8641	0.142	0
96	8650	0.142	0
96	8679	0.143	0
96	8688	0.143	0
96	8690	0.143	0
96	8746	0.144	0
96	8748	0.144	0
96	8804	0.145	0
96	8807	0.145	0
96	8836	0.146	0
96	8839	0.146	0
96	8842	0.146	0
96	8851	0.146	0
96	8854	0.146	0
96	8857	0.146	0
96	8860	0.146	0
96	8863	0.146	0
96	8866	0.146	0
96	8883	0.146	0
96	8892	0.146	0
96	8895	0.146	0
96	8930	0.147	0
96	8933	0.147	0
96	8942	0.147	0
96	8971	0.148	0
96	8980	0.148	0
96	8982	0.148	0
96	9018	0.149	0
96	9020	0.149	0
96	9076	0.15	0
96	9079	0.15	0
96	9134	0.151	0
96	9137	0.151	0
96	9169	0.152	0
96	9172	0.152	0
96	9175	0.152	0
96	9184	0.152	0
96	9187	0.152	0
96	9190	0.152	0
96	9193	0.152	0
96	9196	0.152	0
96	9199	0.152	0
96	9216	0.152	0
96	9222	0.152	0
96	9225	0.152	0
96	9234	0.152	0
96	9263	0.153	0
96	9272	0.153	0
96	9274	0.153	0
96	9310	0.154	0
96	9312	0.154	0
96	9348	0.155	0
96	9351	0.155	0
96	9406	0.156	0
96	9409	0.156	0
96	9464	0.157	0
96	9467	0.157	0
96	9476	0.157	0
96	9505	0.158	0
96	9508	0.158	0
96	9511	0.158	0
96	9520	0.158	0
96	9523	0.158	0
96	9526	0.158	0
96	9529	0.158	0
96	9532	0.158	0
96	9535	0.158	0
96	9552	0.158	0
96	9555	0.158	0
96	9564	0.158	0
96	9566	0.158	0
96	9602	0.159	0
96	9604	0.159	0
96	9640	0.16	0
96	9643	0.16	0
96	9678	0.161	0
96	9681	0.161	0
96	9736	0.162	0
96	9739	0.162	0
96	9748	0.162	0
96	9797	0.163	0
96	9806	0.163	0
96	9808	0.163	0
96	9838	0.164	0
96	9841	0.164	0
96	9844	0.164	0
96	9853	0.164	0
96	9856	0.164	0
96	9859	0.164	0
96	9862	0.164	0
96	9865	0.164	0
96	9868	0.164	0
96	9885	0.164	0
96	9894	0.164	0
96	9896	0.164	0
96	9932	0.165	0
96	9935	0.165	0
96	9970	0.166	0
96	9973	0.166	0
96	10008	0.167	0
96	10011	0.167	0
96	10020	0.167	0
96	10069	0.168	0
96	10078	0.168	0
96	10080	0.168	0
96	10136	0.169	0
96	10138	0.169	0
96	10168	0.17	0
96	10171	0.17	0
96	10174	0.17	0
96	10183	0.17	0
96	10186	0.17	0
96	10189	0.17	0
96	10192	0.17	0
96	10195	0.17	0
96	10198	0.17	0
96	10215	0.17	0
96	10224	0.17	0
96	10227	0.17	0
96	10262	0.171	0
96	10265	0.171	0
96	10300	0.172	0
96	10303	0.172	0
96	10312	0.172	0
96	10341	0.173	0
96	10350	0.173	0
96	10352	0.173	0
96	10408	0.174	0
96	10410	0.174	0
96	10466	0.175	0
96	10469	0.175	0
96	10498	0.176	0
96	10501	0.176	0
96	10504	0.176	0
96	10513	0.176	0
96	10516	0.176	0
96	10519	0.176	0
96	10522	0.176	0
96	10525	0.176	0
96	10528	0.176	0
96	10545	0.176	0
96	10554	0.176	0
96	10557	0.176	0
96	10592	0.177	0
96	10595	0.177	0
96	10604	0.177	0
96	10633	0.178	0
96	10642	0.178	0
96	10644	0.178	0
96	10680	0.179	0
96	10682	0.179	0
96	10738	0.18	0
96	10741	0.18	0
96	10796	0.181	0
96	10799	0.181	0
96	10831	0.182	0
96	10834	0.182	0
96	10837	0.182	0
96	10846	0.182	0
96	10849	0.182	0
96	10852	0.182	0
96	10855	0.182	0
96	10858	0.182	0
96	10861	0.182	0
96	10878	0.182	0
96	10884	0.182	0
96	10887	0.182	0
96	10896	0.182	0
96	10925	0.183	0
96	10934	0.183	0
96	10936	0.183	0
96	10972	0.184	0
96	10974	0.184	0
96	11010	0.185	0
96	11013	0.185	0
96	11068	0.186	0
96	11071	0.186	0
96	11126	0.187	0
96	11129	0.187	0
96	11138	0.187	0
96	11167	0.188	0
96	11170	0.188	0
96	11173	0.188	0
96	11182	0.188	0
96	11185	0.188	0
96	11188	0.188	0
96	11191	0.188	0
96	11194	0.188	0
96	11197	0.188	0
96	11214	0.188	0
96	11217	0.188	0
96	11226	0.188	0
96	11228	0.188	0
96	11264	0.189	0
96	11266	0.189	0
96	11302	0.19	0
96	11305	0.19	0
96	11340	0.191	0
96	11343	0.191	0
96	11398	0.192	0
96	11401	0.192	0
96	11410	0.192	0
96	11459	0.193	0
96	11468	0.193	0
96	11470	0.193	0
96	11500	0.194	0
96	11503	0.194	0
96	11506	0.194	0
96	11515	0.194	0
96	11518	0.194	0
96	11521	0.194	0
96	11524	0.194	0
96	11527	0.194	0
96	11530	0.194	0
96	11547	0.194	0
96	11556	0.194	0
96	11558	0.194	0
96	11594	0.195	0
96	11597	0.195	0
96	11632	0.196	0
96	11635	0.196	0
96	11670	0.197	0
96	11673	0.197	0
96	11682	0.197	0
96	11731	0.198	0
96	11740	0.198	0
96	11742	0.198	0
96	11798	0.199	0
96	11800	0.199	0
96	11830	0.2	0
96	11833	0.2	0
96	11836	0.2	0
96	11845	0.2	0
96	11848	0.2	0
96	11851	0.2	0
96	11854	0.2	0
96	11857	0.2	0
96	11860	0.2	0
96	11877	0.2	0
96	11886	0.2	0
96	11889	0.2	0
96	11924	0.201	0
96	11927	0.201	0
96	11962	0.202	0
96	11965	0.202	0
96	11974	0.202	0
96	12003	0.203	0
96	12012	0.203	0
96	12014	0.203	0
96	12070	0.204	0
96	12072	0.204	0
96	12128	0.205	0
96	12131	0.205	0
96	12160	0.206	0
96	12163	0.206	0
96	12166	0.206	0
96	12175	0.206	0
96	12178	0.206	0
96	12181	0.206	0
96	12184	0.206	0
96	12187	0.206	0
96	12190	0.206	0
96	12207	0.206	0
96	12216	0.206	0
96	12219	0.206	0
96	12254	0.207	0
96	12257	0.207	0
96	12266	0.207	0
96	12710	0.208	0
96	12719	0.208	0
96	12721	0.208	0
96	12757	0.209	0
96	12759	0.209	0
96	12815	0.21	0
96	12818	0.21	0
96	12873	0.211	0
96	12876	0.211	0
96	12908	0.212	0
96	12911	0.212	0
96	12914	0.212	0
96	12923	0.212	0
96	12926	0.212	0
96	12929	0.212	0
96	12932	0.212	0
96	12935	0.212	0
96	12938	0.212	0
96	12955	0.212	0
96	12961	0.212	0
96	12964	0.212	0
96	12973	0.212	0
96	13002	0.213	0
96	13011	0.213	0
96	13013	0.213	0
96	13049	0.214	0
96	13051	0.214	0
96	13087	0.215	0
96	13090	0.215	0
96	13145	0.216	0
96	13148	0.216	0
96	13203	0.217	0
96	13206	0.217	0
96	13215	0.217	0
96	13244	0.218	0
96	13247	0.218	0
96	13250	0.218	0
96	13259	0.218	0
96	13262	0.218	0
96	13265	0.218	0
96	13268	0.218	0
96	13271	0.218	0
96	13274	0.218	0
96	13291	0.218	0
96	13294	0.218	0
96	13303	0.218	0
96	13305	0.218	0
96	13341	0.219	0
96	13343	0.219	0
96	13379	0.22	0
96	13382	0.22	0
96	13417	0.221	0
96	13420	0.221	0
96	13475	0.222	0
96	13478	0.222	0
96	13487	0.222	0
96	13536	0.223	0
96	13545	0.223	0
96	13547	0.223	0
96	13577	0.224	0
96	13580	0.224	0
96	13583	0.224	0
96	13592	0.224	0
96	13595	0.224	0
96	13598	0.224	0
96	13601	0.224	0
96	13604	0.224	0
96	13607	0.224	0
96	13624	0.224	0
96	13633	0.224	0
96	13635	0.224	0
96	13671	0.225	0
96	13674	0.225	0
96	13709	0.226	0
96	13712	0.226	0
96	13747	0.227	0
96	13750	0.227	0
96	13759	0.227	0
96	13808	0.228	0
96	13817	0.228	0
96	13819	0.228	0
96	13875	0.229	0
96	13877	0.229	0
96	13907	0.23	0
96	13910	0.23	0
96	13913	0.23	0
96	13922	0.23	0
96	13925	0.23	0
96	13928	0.23	0
96	13931	0.23	0
96	13934	0.23	0
96	13937	0.23	0
96	13954	0.23	0
96	13963	0.23	0
96	13966	0.23	0
96	14001	0.231	0
96	14004	0.231	0
96	14039	0.232	0
96	14042	0.232	0
96	14051	0.232	0
96	14080	0.233	0
96	14089	0.233	0
96	14091	0.233	0
96	14147	0.234	0
96	14149	0.234	0
96	14205	0.235	0
96	14208	0.235	0
96	14237	0.236	0
96	14240	0.236	0
96	14243	0.236	0
96	14252	0.236	0
96	14255	0.236	0
96	14258	0.236	0
96	14261	0.236	0
96	14264	0.236	0
96	14267	0.236	0
96	14284	0.236	0
96	14293	0.236	0
96	14296	0.236	0
96	14331	0.237	0
96	14334	0.237	0
96	14343	0.237	0
96	14372	0.238	0
96	14381	0.238	0
96	14383	0.238	0
96	14419	0.239	0
96	14421	0.239	0
96	14477	0.24	0
96	14480	0.24	0
96	14535	0.241	0
96	14538	0.241	0
96	14570	0.242	0
96	14573	0.242	0
96	14576	0.242	0
96	14585	0.242	0
96	14588	0.242	0
96	14591	0.242	0
96	14594	0.242	0
96	14597	0.242	0
96	14600	0.242	0
96	14617	0.242	0
96	14623	0.242	0
96	14626	0.242	0
96	14635	0.242	0
96	14664	0.243	0
96	14673	0.243	0
96	14675	0.243	0
96	14711	0.244	0
96	14713	0.244	0
96	14749	0.245	0
96	14752	0.245	0
96	14807	0.246	0
96	14810	0.246	0
96	14865	0.247	0
96	14868	0.247	0
96	14877	0.247	0
96	14906	0.248	0
96	14909	0.248	0
96	14912	0.248	0
96	14921	0.248	0
96	14924	0.248	0
96	14927	0.248	0
96	14930	0.248	0
96	14933	0.248	0
96	14936	0.248	0
96	14953	0.248	0
96	14956	0.248	0
96	14965	0.248	0
96	14967	0.248	0
96	15003	0.249	0
96	15005	0.249	0
96	15041	0.25	0
96	15044	0.25	0
96	15079	0.251	0
96	15082	0.251	0
96	15137	0.252	0
96	15140	0.252	0
96	15149	0.252	0
96	15198	0.253	0
96	15207	0.253	0
96	15209	0.253	0
96	15239	0.254	0
96	15242	0.254	0
96	15245	0.254	0
96	15254	0.254	0
96	15257	0.254	0
96	15260	0.254	0
96	15263	0.254	0
96	15266	0.254	0
96	15269	0.254	0
96	15286	0.254	0
96	15295	0.254	0
96	15297	0.254	0
96	15333	0.255	0
96	15336	0.255	0
96	15371	0.256	0
96	15374	0.256	0
96	15409	0.257	0
96	15412	0.257	0
96	15421	0.257	0
96	15885	0.258	0
96	15894	0.258	0
96	15896	0.258	0
96	15952	0.259	0
96	15954	0.259	0
96	15984	0.26	0
96	15987	0.26	0
96	15990	0.26	0
96	15999	0.26	0
96	16002	0.26	0
96	16005	0.26	0
96	16008	0.26	0
96	16011	0.26	0
96	16014	0.26	0
96	16031	0.26	0
96	16040	0.26	0
96	16043	0.26	0
96	16078	0.261	0
96	16081	0.261	0
96	16116	0.262	0
96	16119	0.262	0
96	16128	0.262	0
96	16157	0.263	0
96	16166	0.263	0
96	16168	0.263	0
96	16224	0.264	0
96	16226	0.264	0
96	16282	0.265	0
96	16285	0.265	0
96	16314	0.266	0
96	16317	0.266	0
96	16320	0.266	0
96	16329	0.266	0
96	16332	0.266	0
96	16335	0.266	0
96	16338	0.266	0
96	16341	0.266	0
96	16344	0.266	0
96	16361	0.266	0
96	16370	0.266	0
96	16373	0.266	0
96	16408	0.267	0
96	16411	0.267	0
96	16420	0.267	0
96	16449	0.268	0
96	16458	0.268	0
96	16460	0.268	0
96	16496	0.269	0
96	16498	0.269	0
96	16554	0.27	0
96	16557	0.27	0
96	16612	0.271	0
96	16615	0.271	0
96	16647	0.272	0
96	16650	0.272	0
96	16653	0.272	0
96	16662	0.272	0
96	16665	0.272	0
96	16668	0.272	0
96	16671	0.272	0
96	16674	0.272	0
96	16677	0.272	0
96	16694	0.272	0
96	16700	0.272	0
96	16703	0.272	0
96	16712	0.272	0
96	16741	0.273	0
96	16750	0.273	0
96	16752	0.273	0
96	16788	0.274	0
96	16790	0.274	0
96	16826	0.275	0
96	16829	0.275	0
96	16884	0.276	0
96	16887	0.276	0
96	16942	0.277	0
96	16945	0.277	0
96	16954	0.277	0
96	16983	0.278	0
96	16986	0.278	0
96	16989	0.278	0
96	16998	0.278	0
96	17001	0.278	0
96	17004	0.278	0
96	17007	0.278	0
96	17010	0.278	0
96	17013	0.278	0
96	17030	0.278	0
96	17033	0.278	0
96	17042	0.278	0
96	17044	0.278	0
96	17080	0.279	0
96	17082	0.279	0
96	17118	0.28	0
96	17121	0.28	0
96	17156	0.281	0
96	17159	0.281	0
96	17214	0.282	0
96	17217	0.282	0
96	17226	0.282	0
96	17275	0.283	0
96	17284	0.283	0
96	17286	0.283	0
96	17316	0.284	0
96	17319	0.284	0
96	17322	0.284	0
96	17331	0.284	0
96	17334	0.284	0
96	17337	0.284	0
96	17340	0.284	0
96	17343	0.284	0
96	17346	0.284	0
96	17363	0.284	0
96	17372	0.284	0
96	17374	0.284	0
96	17410	0.285	0
96	17413	0.285	0
96	17448	0.286	0
96	17451	0.286	0
96	17486	0.287	0
96	17489	0.287	0
96	17498	0.287	0
96	17547	0.288	0
96	17556	0.288	0
96	17558	0.288	0
96	17614	0.289	0
96	17616	0.289	0
96	17646	0.29	0
96	17649	0.29	0
96	17652	0.29	0
96	17661	0.29	0
96	17664	0.29	0
96	17667	0.29	0
96	17670	0.29	0
96	17673	0.29	0
96	17676	0.29	0
96	17693	0.29	0
96	17702	0.29	0
96	17705	0.29	0
96	17740	0.291	0
96	17743	0.291	0
96	17778	0.292	0
96	17781	0.292	0
96	17790	0.292	0
96	17819	0.293	0
96	17828	0.293	0
96	17830	0.293	0
96	17886	0.294	0
96	17888	0.294	0
96	17944	0.295	0
96	17947	0.295	0
96	17976	0.296	0
96	17979	0.296	0
96	17982	0.296	0
96	17991	0.296	0
96	17994	0.296	0
96	17997	0.296	0
96	18000	0.296	0
96	18003	0.296	0
96	18006	0.296	0
96	18023	0.296	0
96	18032	0.296	0
96	18035	0.296	0
96	18070	0.297	0
96	18073	0.297	0
96	18082	0.297	0
96	18111	0.298	0
96	18120	0.298	0
96	18122	0.298	0
96	18158	0.299	0
96	18160	0.299	0
96	18216	0.3	0
96	18219	0.3	0
96	18274	0.301	0
96	18277	0.301	0
96	18309	0.302	0
96	18312	0.302	0
96	18315	0.302	0
96	18324	0.302	0
96	18327	0.302	0
96	18330	0.302	0
96	18333	0.302	0
96	18336	0.302	0
96	18339	0.302	0
96	18356	0.302	0
96	18362	0.302	0
96	18365	0.302	0
96	18374	0.302	0
96	18403	0.303	0
96	18412	0.303	0
96	18414	0.303	0
96	18450	0.304	0
96	18452	0.304	0
96	18488	0.305	0
96	18491	0.305	0
96	18546	0.306	0
96	18549	0.306	0
96	18604	0.307	0
96	18607	0.307	0
96	18616	0.307	0
96	18645	0.308	0
96	18648	0.308	0
96	18651	0.308	0
96	18660	0.308	0
96	18663	0.308	0
96	18666	0.308	0
96	18669	0.308	0
96	18672	0.308	0
96	18675	0.308	0
96	18692	0.308	0
96	18695	0.308	0
96	18704	0.308	0
96	18706	0.308	0
96	18742	0.309	0
96	18744	0.309	0
96	18780	0.31	0
96	18783	0.31	0
96	18818	0.311	0
96	18821	0.311	0
96	18876	0.312	0
96	18879	0.312	0
96	18888	0.312	0
96	18937	0.313	0
96	18946	0.313	0
96	18948	0.313	0
96	18978	0.314	0
96	18981	0.314	0
96	18984	0.314	0
96	18993	0.314	0
96	18996	0.314	0
96	18999	0.314	0
96	19002	0.314	0
96	19005	0.314	0
96	19008	0.314	0
96	19025	0.314	0
96	19034	0.314	0
96	19036	0.314	0
96	19072	0.315	0
96	19075	0.315	0
96	19110	0.316	0
96	19113	0.316	0
96	19148	0.317	0
96	19151	0.317	0
96	19160	0.317	0
96	19209	0.318	0
96	19218	0.318	0
96	19220	0.318	0
96	19276	0.319	0
96	19278	0.319	0
96	19308	0.32	0
96	19311	0.32	0
96	19314	0.32	0
96	19323	0.32	0
96	19326	0.32	0
96	19329	0.32	0
96	19332	0.32	0
96	19335	0.32	0
96	19338	0.32	0
96	19355	0.32	0
96	19364	0.32	0
96	19367	0.32	0
96	19402	0.321	0
96	19405	0.321	0
96	19440	0.322	0
96	19443	0.322	0
96	19452	0.322	0
96	19481	0.323	0
96	19490	0.323	0
96	19492	0.323	0
96	19548	0.324	0
96	19550	0.324	0
96	19606	0.325	0
96	19609	0.325	0
96	19638	0.326	0
96	19641	0.326	0
96	19644	0.326	0
96	19653	0.326	0
96	19656	0.326	0
96	19659	0.326	0
96	19662	0.326	0
96	19665	0.326	0
96	19668	0.326	0
96	19685	0.326	0
96	19694	0.326	0
96	19697	0.326	0
96	19732	0.327	0
96	19735	0.327	0
96	19744	0.327	0
96	19773	0.328	0
96	19782	0.328	0
96	19784	0.328	0
96	19820	0.329	0
96	19822	0.329	0
96	19878	0.33	0
96	19881	0.33	0
96	19936	0.331	0
96	19939	0.331	0
96	19971	0.332	0
96	19974	0.332	0
96	19977	0.332	0
96	19986	0.332	0
96	19989	0.332	0
96	19992	0.332	0
96	19995	0.332	0
96	19998	0.332	0
96	20001	0.332	0
96	20018	0.332	0
96	20024	0.332	0
96	20027	0.332	0
96	20036	0.332	0
96	20065	0.333	0
96	20074	0.333	0
96	20076	0.333	0
96	20112	0.334	0
96	20114	0.334	0
96	20150	0.335	0
96	20153	0.335	0
96	20208	0.336	0
96	20211	0.336	0
96	20266	0.337	0
96	20269	0.337	0
96	20278	0.337	0
96	20307	0.338	0
96	20310	0.338	0
96	20313	0.338	0
96	20322	0.338	0
96	20325	0.338	0
96	20328	0.338	0
96	20331	0.338	0
96	20334	0.338	0
96	20337	0.338	0
96	20354	0.338	0
96	20357	0.338	0
96	20366	0.338	0
96	20368	0.338	0
96	20404	0.339	0
96	20406	0.339	0
96	20442	0.34	0
96	20445	0.34	0
96	20480	0.341	0
96	20483	0.341	0
96	20538	0.342	0
96	20541	0.342	0
96	20550	0.342	0
96	20599	0.343	0
96	20608	0.343	0
96	20610	0.343	0
96	20640	0.344	0
96	20643	0.344	0
96	20646	0.344	0
96	20655	0.344	0
96	20658	0.344	0
96	20661	0.344	0
96	20664	0.344	0
96	20667	0.344	0
96	20670	0.344	0
96	20687	0.344	0
96	20696	0.344	0
96	20698	0.344	0
96	20734	0.345	0
96	20737	0.345	0
96	20772	0.346	0
96	20775	0.346	0
96	20810	0.347	0
96	20813	0.347	0
96	20822	0.347	0
96	20871	0.348	0
96	20880	0.348	0
96	20882	0.348	0
96	20938	0.349	0
96	20940	0.349	0
96	20970	0.35	0
96	20973	0.35	0
96	20976	0.35	0
96	20985	0.35	0
96	20988	0.35	0
96	20991	0.35	0
96	20994	0.35	0
96	20997	0.35	0
96	21000	0.35	0
96	21017	0.35	0
96	21026	0.35	0
96	21029	0.35	0
96	21064	0.351	0
96	21067	0.351	0
96	21102	0.352	0
96	21105	0.352	0
96	21114	0.352	0
96	21143	0.353	0
96	21152	0.353	0
96	21154	0.353	0
96	21210	0.354	0
96	21212	0.354	0
96	21268	0.355	0
96	21271	0.355	0
96	21300	0.356	0
96	21303	0.356	0
96	21306	0.356	0
96	21315	0.356	0
96	21318	0.356	0
96	21321	0.356	0
96	21324	0.356	0
96	21327	0.356	0
96	21330	0.356	0
96	21347	0.356	0
96	21356	0.356	0
96	21359	0.356	0
96	21394	0.357	0
96	21397	0.357	0
96	21406	0.357	0
96	21435	0.358	0
96	21444	0.358	0
96	21446	0.358	0
96	21482	0.359	0
96	21484	0.359	0
96	21540	0.36	0
96	21543	0.36	0
96	21598	0.361	0
96	21601	0.361	0
96	21633	0.362	0
96	21636	0.362	0
96	21639	0.362	0
96	21648	0.362	0
96	21651	0.362	0
96	21654	0.362	0
96	21657	0.362	0
96	21660	0.362	0
96	21663	0.362	0
96	21680	0.362	0
96	21686	0.362	0
96	21689	0.362	0
96	21698	0.362	0
96	21727	0.363	0
96	21736	0.363	0
96	21738	0.363	0
96	21774	0.364	0
96	21776	0.364	0
96	21812	0.365	0
96	21815	0.365	0
96	21870	0.366	0
96	21873	0.366	0
96	21928	0.367	0
96	21931	0.367	0
96	21940	0.367	0
96	21969	0.368	0
96	21972	0.368	0
96	21975	0.368	0
96	21984	0.368	0
96	21987	0.368	0
96	21990	0.368	0
96	21993	0.368	0
96	21996	0.368	0
96	21999	0.368	0
96	22016	0.368	0
96	22019	0.368	0
96	22028	0.368	0
96	22030	0.368	0
96	22066	0.369	0
96	22068	0.369	0
96	22104	0.37	0
96	22107	0.37	0
96	22142	0.371	0
96	22145	0.371	0
96	22200	0.372	0
96	22203	0.372	0
96	22212	0.372	0
96	22261	0.373	0
96	22270	0.373	0
96	22272	0.373	0
96	22302	0.374	0
96	22305	0.374	0
96	22308	0.374	0
96	22317	0.374	0
96	22320	0.374	0
96	22323	0.374	0
96	22326	0.374	0
96	22329	0.374	0
96	22332	0.374	0
96	22349	0.374	0
96	22358	0.374	0
96	22360	0.374	0
96	22396	0.375	0
96	22399	0.375	0
96	22434	0.376	0
96	22437	0.376	0
96	22472	0.377	0
96	22475	0.377	0
96	22484	0.377	0
96	22533	0.378	0
96	22542	0.378	0
96	22544	0.378	0
96	22600	0.379	0
96	22602	0.379	0
96	22632	0.38	0
96	22635	0.38	0
96	22638	0.38	0
96	22647	0.38	0
96	22650	0.38	0
96	22653	0.38	0
96	22656	0.38	0
96	22659	0.38	0
96	22662	0.38	0
96	22679	0.38	0
96	22688	0.38	0
96	22691	0.38	0
96	22726	0.381	0
96	22729	0.381	0
96	22764	0.382	0
96	22767	0.382	0
96	22776	0.382	0
96	22805	0.383	0
96	22814	0.383	0
96	22816	0.383	0
96	22872	0.384	0
96	22874	0.384	0
96	22930	0.385	0
96	22933	0.385	0
96	22962	0.386	0
96	22965	0.386	0
96	22968	0.386	0
96	22977	0.386	0
96	22980	0.386	0
96	22983	0.386	0
96	22986	0.386	0
96	22989	0.386	0
96	22992	0.386	0
96	23009	0.386	0
96	23018	0.386	0
96	23021	0.386	0
96	23056	0.387	0
96	23059	0.387	0
96	23068	0.387	0
96	23097	0.388	0
96	23106	0.388	0
96	23108	0.388	0
96	23144	0.389	0
96	23146	0.389	0
96	23202	0.39	0
96	23205	0.39	0
96	23260	0.391	0
96	23263	0.391	0
96	23295	0.392	0
96	23298	0.392	0
96	23301	0.392	0
96	23310	0.392	0
96	23313	0.392	0
96	23316	0.392	0
96	23319	0.392	0
96	23322	0.392	0
96	23325	0.392	0
96	23342	0.392	0
96	23348	0.392	0
96	23351	0.392	0
96	23360	0.392	0
96	23389	0.393	0
96	23398	0.393	0
96	23400	0.393	0
96	23436	0.394	0
96	23438	0.394	0
96	23474	0.395	0
96	23477	0.395	0
96	23532	0.396	0
96	23535	0.396	0
96	23590	0.397	0
96	23593	0.397	0
96	23602	0.397	0
96	23631	0.398	0
96	23634	0.398	0
96	23637	0.398	0
96	23646	0.398	0
96	23649	0.398	0
96	23652	0.398	0
96	23655	0.398	0
96	23658	0.398	0
96	23661	0.398	0
96	23678	0.398	0
96	23681	0.398	0
96	23690	0.398	0
96	23692	0.398	0
96	23728	0.399	0
96	23730	0.399	0
96	23766	0.4	0
96	23769	0.4	0
96	23804	0.401	0
96	23807	0.401	0
96	23862	0.402	0
96	23865	0.402	0
96	23874	0.402	0
96	23923	0.403	0
96	23932	0.403	0
96	23934	0.403	0
96	23964	0.404	0
96	23967	0.404	0
96	23970	0.404	0
96	23979	0.404	0
96	23982	0.404	0
96	23985	0.404	0
96	23988	0.404	0
96	23991	0.404	0
96	23994	0.404	0
96	24011	0.404	0
96	24020	0.404	0
96	24022	0.404	0
96	24058	0.405	0
96	24061	0.405	0
96	24096	0.406	0
96	24099	0.406	0
96	24134	0.407	0
96	24137	0.407	0
96	24146	0.407	0
96	24203	0.408	0
96	24212	0.408	0
96	24214	0.408	0
96	24270	0.409	0
96	24272	0.409	0
96	24302	0.41	0
96	24305	0.41	0
96	24308	0.41	0
96	24317	0.41	0
96	24320	0.41	0
96	24323	0.41	0
96	24326	0.41	0
96	24329	0.41	0
96	24332	0.41	0
96	24349	0.41	0
96	24358	0.41	0
96	24361	0.41	0
96	24396	0.411	0
96	24399	0.411	0
96	24434	0.412	0
96	24437	0.412	0
96	24446	0.412	0
96	24475	0.413	0
96	24484	0.413	0
96	24486	0.413	0
96	24542	0.414	0
96	24544	0.414	0
96	24600	0.415	0
96	24603	0.415	0
96	24632	0.416	0
96	24635	0.416	0
96	24638	0.416	0
96	24647	0.416	0
96	24650	0.416	0
96	24653	0.416	0
96	24656	0.416	0
96	24659	0.416	0
96	24662	0.416	0
96	24679	0.416	0
96	24688	0.416	0
96	24691	0.416	0
96	24726	0.417	0
96	24729	0.417	0
96	24738	0.417	0
96	24767	0.418	0
96	24776	0.418	0
96	24778	0.418	0
96	24814	0.419	0
96	24816	0.419	0
96	24872	0.42	0
96	24875	0.42	0
96	24930	0.421	0
96	24933	0.421	0
96	24965	0.422	0
96	24968	0.422	0
96	24971	0.422	0
96	24980	0.422	0
96	24983	0.422	0
96	24986	0.422	0
96	24989	0.422	0
96	24992	0.422	0
96	24995	0.422	0
96	25012	0.422	0
96	25018	0.422	0
96	25021	0.422	0
96	25030	0.422	0
96	25059	0.423	0
96	25068	0.423	0
96	25070	0.423	0
96	25106	0.424	0
96	25108	0.424	0
96	25144	0.425	0
96	25147	0.425	0
96	25202	0.426	0
96	25205	0.426	0
96	25260	0.427	0
96	25263	0.427	0
96	25272	0.427	0
96	25301	0.428	0
96	25304	0.428	0
96	25307	0.428	0
96	25316	0.428	0
96	25319	0.428	0
96	25322	0.428	0
96	25325	0.428	0
96	25328	0.428	0
96	25331	0.428	0
96	25348	0.428	0
96	25351	0.428	0
96	25360	0.428	0
96	25362	0.428	0
96	25398	0.429	0
96	25400	0.429	0
96	25436	0.43	0
96	25439	0.43	0
96	25474	0.431	0
96	25477	0.431	0
96	25532	0.432	0
96	25535	0.432	0
96	25544	0.432	0
96	25593	0.433	0
96	25602	0.433	0
96	25604	0.433	0
96	25634	0.434	0
96	25637	0.434	0
96	25640	0.434	0
96	25649	0.434	0
96	25652	0.434	0
96	25655	0.434	0
96	25658	0.434	0
96	25661	0.434	0
96	25664	0.434	0
96	25681	0.434	0
96	25690	0.434	0
96	25692	0.434	0
96	25728	0.435	0
96	25731	0.435	0
96	25766	0.436	0
96	25769	0.436	0
96	25804	0.437	0
96	25807	0.437	0
96	25816	0.437	0
96	25865	0.438	0
96	25874	0.438	0
96	25876	0.438	0
96	25932	0.439	0
96	25934	0.439	0
96	25964	0.44	0
96	25967	0.44	0
96	25970	0.44	0
96	25979	0.44	0
96	25982	0.44	0
96	25985	0.44	0
96	25988	0.44	0
96	25991	0.44	0
96	25994	0.44	0
96	26011	0.44	0
96	26020	0.44	0
96	26023	0.44	0
96	26058	0.441	0
96	26061	0.441	0
96	26096	0.442	0
96	26099	0.442	0
96	26108	0.442	0
96	26137	0.443	0
96	26146	0.443	0
96	26148	0.443	0
96	26204	0.444	0
96	26206	0.444	0
96	26262	0.445	0
96	26265	0.445	0
96	26294	0.446	0
96	26297	0.446	0
96	26300	0.446	0
96	26309	0.446	0
96	26312	0.446	0
96	26315	0.446	0
96	26318	0.446	0
96	26321	0.446	0
96	26324	0.446	0
96	26341	0.446	0
96	26350	0.446	0
96	26353	0.446	0
96	26388	0.447	0
96	26391	0.447	0
96	26400	0.447	0
96	26429	0.448	0
96	26438	0.448	0
96	26440	0.448	0
96	26476	0.449	0
96	26478	0.449	0
96	26534	0.45	0
96	26537	0.45	0
96	26592	0.451	0
96	26595	0.451	0
96	26627	0.452	0
96	26630	0.452	0
96	26633	0.452	0
96	26642	0.452	0
96	26645	0.452	0
96	26648	0.452	0
96	26651	0.452	0
96	26654	0.452	0
96	26657	0.452	0
96	26674	0.452	0
96	26680	0.452	0
96	26683	0.452	0
96	26692	0.452	0
96	26721	0.453	0
96	26730	0.453	0
96	26732	0.453	0
96	26768	0.454	0
96	26770	0.454	0
96	26806	0.455	0
96	26809	0.455	0
96	26864	0.456	0
96	26867	0.456	0
96	26922	0.457	0
96	26925	0.457	0
96	26934	0.457	0
96	26971	0.458	0
96	26974	0.458	0
96	26977	0.458	0
96	26986	0.458	0
96	26989	0.458	0
96	26992	0.458	0
96	26995	0.458	0
96	26998	0.458	0
96	27001	0.458	0
96	27018	0.458	0
96	27021	0.458	0
96	27030	0.458	0
96	27032	0.458	0
96	27068	0.459	0
96	27070	0.459	0
96	27106	0.46	0
96	27109	0.46	0
96	27144	0.461	0
96	27147	0.461	0
96	27202	0.462	0
96	27205	0.462	0
96	27214	0.462	0
96	27263	0.463	0
96	27272	0.463	0
96	27274	0.463	0
96	27304	0.464	0
96	27307	0.464	0
96	27310	0.464	0
96	27319	0.464	0
96	27322	0.464	0
96	27325	0.464	0
96	27328	0.464	0
96	27331	0.464	0
96	27334	0.464	0
96	27351	0.464	0
96	27360	0.464	0
96	27362	0.464	0
96	27398	0.465	0
96	27401	0.465	0
96	27436	0.466	0
96	27439	0.466	0
96	27474	0.467	0
96	27477	0.467	0
96	27486	0.467	0
96	27535	0.468	0
96	27544	0.468	0
96	27546	0.468	0
96	27602	0.469	0
96	27604	0.469	0
96	27634	0.47	0
96	27637	0.47	0
96	27640	0.47	0
96	27649	0.47	0
96	27652	0.47	0
96	27655	0.47	0
96	27658	0.47	0
96	27661	0.47	0
[...]
1174	12274	0.2070005104	104
1174	12274	0.2070005104	106
1174	12274	0.2070005104	108
1174	12274	0.2070005104	110
1174	12274	0.2070005104	112
1174	12274	0.2070005104	114
1174	12274	0.2070005104	116
1174	12274	0.2070005104	118
1174	12274	0.2070005104	120
1174	12274	0.2070005104	122
1174	12274	0.2070005104	124
1174	12274	0.2070005104	126
1174	12274	0.2070005104	128
1174	12274	0.2070005104	130
1174	12274	0.2070005104	132
1174	12274	0.2070005104	134
1174	12274	0.2070005104	136
1174	12274	0.2070005104	138
1174	12274	0.2070005104	140
1174	12274	0.2070005104	142
1174	12274	0.2070005104	144
1174	12274	0.2070005104	146
1174	12274	0.2070005104	148
1174	12274	0.2070005104	150
1174	12274	0.2070005104	152
1174	12274	0.2070005104	154
1174	12274	0.2070005104	156
1174	12274	0.2070005104	158
1174	12274	0.2070005104	160
1174	24154	0.4070019656	158
1174	24154	0.4070019656	156
1174	24154	0.4070019656	154
1174	24154	0.4070019656	152
1174	24154	0.4070019656	150
1174	24154	0.4070019656	148
1174	24154	0.4070019656	146
1174	24154	0.4070019656	144
1174	24154	0.4070019656	142
1174	24154	0.4070019656	140
1174	24154	0.4070019656	138
1174	24154	0.4070019656	136
1174	24154	0.4070019656	134
1174	24154	0.4070019656	132
1174	24154	0.4070019656	130
1174	24154	0.4070019656	128
1174	24154	0.4070019656	126
1174	24154	0.4070019656	124
1174	24154	0.4070019656	122
1174	24154	0.4070019656	120
1174	24154	0.4070019656	118
1174	24154	0.4070019656	116
1174	24154	0.4070019656	114
1174	24154	0.4070019656	112
1174	24154	0.4070019656	110
1174	24154	0.4070019656	108
1174	24154	0.4070019656	106
1174	24154	0.4070019656	104
1174	24154	0.4070019656	102
1174	24154	0.4070019656	100
1174	24154	0.4070019656	98
1174	24154	0.4070019656	96
1174	24154	0.4070019656	94
1174	24154	0.4070019656	92
1174	24154	0.4070019656	90
1174	24154	0.4070019656	88
1174	24154	0.4070019656	86
1174	24154	0.4070019656	84
1174	24154	0.4070019656	82
1174	24154	0.4070019656	80
1174	24154	0.4070019656	78
1174	24154	0.4070019656	76
1174	24154	0.4070019656	74
1174	24154	0.4070019656	72
1174	24154	0.4070019656	70
1174	24154	0.4070019656	68
1174	24154	0.4070019656	66
1174	24154	0.4070019656	64
1174	24154	0.4070019656	62
1174	24154	0.4070019656	60
1174	24154	0.4070019656	58
1174	24154	0.4070019656	56
1174	24154	0.4070019656	54
1174	24154	0.4070019656	52
1174	24154	0.4070019656	50
1174	24154	0.4070019656	48
1174	24154	0.4070019656	46
1174	24154	0.4070019656	44
1174	24154	0.4070019656	42
1174	24154	0.4070019656	40
1174	24154	0.4070019656	38
1174	24154	0.4070019656	36
1174	24154	0.4070019656	34
1174	24154	0.4070019656	32
1174	24154	0.4070019656	30
1174	24154	0.4070019656	28
1174	24154	0.4070019656	26
1174	24154	0.4070019656	24
1174	24154	0.4070019656	22
1174	24154	0.4070019656	20
1174	24154	0.4070019656	18
1174	24154	0.4070019656	16
1174	24154	0.4070019656	14
1174	24154	0.4070019656	12
1174	24154	0.4070019656	10
1174	24154	0.4070019656	8
1174	24154	0.4070019656	6
1174	24154	0.4070019656	4
1174	24154	0.4070019656	2
1174	24154	0.4070019656	0
1175	605	0.007	2
1175	659	0.0070001912	0
1175	659	0.0070001912	2
1175	659	0.0070001912	4
1175	659	0.0070001912	6
1175	659	0.0070001912	8
1175	659	0.0070001912	10
1175	659	0.0070001912	12
1175	659	0.0070001912	14
1175	659	0.0070001912	16
1175	659	0.0070001912	18
1175	12274	0.2070005104	16
1175	12274	0.2070005104	14
1175	12274	0.2070005104	12
1175	12274	0.2070005104	10
1175	12274	0.2070005104	8
1175	12274	0.2070005104	6
1175	12274	0.2070005104	4
1175	12274	0.2070005104	2
1175	12274	0.2070005104	0
1175	12274	0.2070005104	2
1175	12274	0.2070005104	4
1175	12274	0.2070005104	6
1175	12274	0.2070005104	8
1175	12274	0.2070005104	10
1175	12274	0.2070005104	12
1175	12274	0.2070005104	14
1175	12274	0.2070005104	16
1175	12274	0.2070005104	18
1175	12274	0.2070005104	20
1175	12274	0.2070005104	22
1175	12274	0.2070005104	24
1175	12274	0.2070005104	26
1175	12274	0.2070005104	28
1175	12274	0.2070005104	30
1175	12274	0.2070005104	32
1175	12274	0.2070005104	34
1175	12274	0.2070005104	36
1175	12274	0.2070005104	38
1175	12274	0.2070005104	40
1175	12274	0.2070005104	42
1175	12274	0.2070005104	44
1175	12274	0.2070005104	46
1175	12274	0.2070005104	48
1175	12274	0.2070005104	50
1175	12274	0.2070005104	52
1175	12274	0.2070005104	54
1175	12274	0.2070005104	56
1175	12274	0.2070005104	58
1175	12274	0.2070005104	60
1175	12274	0.2070005104	62
1175	12274	0.2070005104	64
1175	12274	0.2070005104	66
1175	12274	0.2070005104	68
1175	12274	0.2070005104	70
1175	12274	0.2070005104	72
1175	12274	0.2070005104	74
1175	12274	0.2070005104	76
1175	12274	0.2070005104	78
1175	12274	0.2070005104	80
1175	12274	0.2070005104	82
1175	12274	0.2070005104	84
1175	12274	0.2070005104	86
1175	12274	0.2070005104	88
1175	12274	0.2070005104	90
1175	12274	0.2070005104	92
1175	12274	0.2070005104	94
1175	12274	0.2070005104	96
1175	12274	0.2070005104	98
1175	12274	0.2070005104	100
1175	12274	0.2070005104	102
1175	12274	0.2070005104	104
1175	12274	0.2070005104	106
1175	12274	0.2070005104	108
1175	12274	0.2070005104	110
1175	12274	0.2070005104	112
1175	12274	0.2070005104	114
1175	12274	0.2070005104	116
1175	12274	0.2070005104	118
1175	12274	0.2070005104	120
1175	12274	0.2070005104	122
1175	12274	0.2070005104	124
1175	12274	0.2070005104	126
1175	12274	0.2070005104	128
1175	12274	0.2070005104	130
1175	12274	0.2070005104	132
1175	12274	0.2070005104	134
1175	12274	0.2070005104	136
1175	12274	0.2070005104	138
1175	12274	0.2070005104	140
1175	12274	0.2070005104	142
1175	12274	0.2070005104	144
1175	12274	0.2070005104	146
1175	12274	0.2070005104	148
1175	12274	0.2070005104	150
1175	12274	0.2070005104	152
1175	12274	0.2070005104	154
1175	12274	0.2070005104	156
1175	12274	0.2070005104	158
1175	12274	0.2070005104	160
1175	24154	0.4070019656	158
1175	24154	0.4070019656	156
1175	24154	0.4070019656	154
1175	24154	0.4070019656	152
1175	24154	0.4070019656	150
1175	24154	0.4070019656	148
1175	24154	0.4070019656	146
1175	24154	0.4070019656	144
1175	24154	0.4070019656	142
1175	24154	0.4070019656	140
1175	24154	0.4070019656	138
1175	24154	0.4070019656	136
1175	24154	0.4070019656	134
1175	24154	0.4070019656	132
1175	24154	0.4070019656	130
1175	24154	0.4070019656	128
1175	24154	0.4070019656	126
1175	24154	0.4070019656	124
1175	24154	0.4070019656	122
1175	24154	0.4070019656	120
1175	24154	0.4070019656	118
1175	24154	0.4070019656	116
1175	24154	0.4070019656	114
1175	24154	0.4070019656	112
1175	24154	0.4070019656	110
1175	24154	0.4070019656	108
1175	24154	0.4070019656	106
1175	24154	0.4070019656	104
1175	24154	0.4070019656	102
1175	24154	0.4070019656	100
1175	24154	0.4070019656	98
1175	24154	0.4070019656	96
1175	24154	0.4070019656	94
1175	24154	0.4070019656	92
1175	24154	0.4070019656	90
1175	24154	0.4070019656	88
1175	24154	0.4070019656	86
1175	24154	0.4070019656	84
1175	24154	0.4070019656	82
1175	24154	0.4070019656	80
1175	24154	0.4070019656	78
1175	24154	0.4070019656	76
1175	24154	0.4070019656	74
1175	24154	0.4070019656	72
1175	24154	0.4070019656	70
1175	24154	0.4070019656	68
1175	24154	0.4070019656	66
1175	24154	0.4070019656	64
1175	24154	0.4070019656	62
1175	24154	0.4070019656	60
1175	24154	0.4070019656	58
1175	24154	0.4070019656	56
1175	24154	0.4070019656	54
1175	24154	0.4070019656	52
1175	24154	0.4070019656	50
1175	24154	0.4070019656	48
1175	24154	0.4070019656	46
1175	24154	0.4070019656	44
1175	24154	0.4070019656	42
1175	24154	0.4070019656	40
1175	24154	0.4070019656	38
1175	24154	0.4070019656	36
1175	24154	0.4070019656	34
1175	24154	0.4070019656	32
1175	24154	0.4070019656	30
1175	24154	0.4070019656	28
1175	24154	0.4070019656	26
1175	24154	0.4070019656	24
1175	24154	0.4070019656	22
1175	24154	0.4070019656	20
1175	24154	0.4070019656	18
1175	24154	0.4070019656	16
1175	24154	0.4070019656	14
1175	24154	0.4070019656	12
1175	24154	0.4070019656	10
1175	24154	0.4070019656	8
1175	24154	0.4070019656	6
1175	24154	0.4070019656	4
1175	24154	0.4070019656	2
1175	24154	0.4070019656	0
1178	659	0.0070001912	0
1178	12274	0.2070005104	0
1178	24154	0.4070019656	0
1179	659	0.0070001912	0
1179	12274	0.2070005104	0
1179	24154	0.4070019656	0
1180	659	0.0070001912	0
1180	12274	0.2070005104	0
1180	24154	0.4070019656	0
1181	659	0.0070001912	0
1181	12274	0.2070005104	0
1181	24154	0.4070019656	0
1182	150	0.0000001228	0
1185	659	0.0070001912	2000
1185	12274	0.2070005104	2009
1185	24154	0.4070019656	2089
1187	659	0.0070001912	0
1187	12274	0.2070005104	0
1187	24154	0.4070019656	0
1188	659	0.0070001912	0
1188	12274	0.2070005104	0
1188	24154	0.4070019656	0
1190	235	0.0000006304	3
1192	235	0.0000006304	65535
1193	235	0.0000006304	8940
1194	235	0.0000006304	0.3725
1197	235	0.0000006304	1
1209	163	0.0000003096	0
1217	235	0.0000006304	3
1219	235	0.0000006304	65535
1220	235	0.0000006304	8940
1221	235	0.0000006304	0.3725
1224	235	0.0000006304	1
1236	163	0.0000003096	0
1244	236	0.0000006304	3
1246	236	0.0000006304	65535
1247	236	0.0000006304	8940
1248	236	0.0000006304	0.3725
1251	236	0.0000006304	1
1263	164	0.0000003096	0
1271	236	0.0000006304	3
1273	236	0.0000006304	65535
1274	236	0.0000006304	8940
1275	236	0.0000006304	0.3725
1278	236	0.0000006304	1
1290	164	0.0000003096	0
1300	3476	0.0570001912	0
1300	15429	0.2570005104	0
1300	26942	0.4570019656	0
1301	3404	0.057	1
1301	3404	0.057	0
1301	3405	0.057	1
1301	3406	0.057	2
1301	3407	0.057	3
1301	3408	0.057	4
1301	3409	0.057	5
1301	3410	0.057	6
1301	3411	0.057	7
1301	3412	0.057	8
1301	3413	0.057	9
1301	3476	0.0570001912	8
1301	3476	0.0570001912	7
1301	3476	0.0570001912	6
1301	3476	0.0570001912	5
1301	3476	0.0570001912	4
1301	3476	0.0570001912	3
1301	3476	0.0570001912	2
1301	3476	0.0570001912	1
1301	3476	0.0570001912	0
1301	3851	0.063	1
1301	3852	0.063	2
1301	3853	0.063	3
1301	3854	0.063	4
1301	3855	0.063	5
1301	3856	0.063	6
1301	3857	0.063	7
1301	3858	0.063	8
1301	3859	0.063	9
1301	3860	0.063	10
1301	4226	0.069	11
1301	4227	0.069	12
1301	4228	0.069	13
1301	4229	0.069	14
1301	4230	0.069	15
1301	4231	0.069	16
1301	4232	0.069	17
1301	4233	0.069	18
1301	4234	0.069	19
1301	4235	0.069	20
1301	4630	0.075	21
1301	4631	0.075	22
1301	4632	0.075	23
1301	4633	0.075	24
1301	4634	0.075	25
1301	4635	0.075	26
1301	4636	0.075	27
1301	4637	0.075	28
1301	4638	0.075	29
1301	4639	0.075	30
1301	5033	0.081	31
1301	5034	0.081	32
1301	5035	0.081	33
1301	5036	0.081	34
1301	5037	0.081	35
1301	5038	0.081	36
1301	5039	0.081	37
1301	5040	0.081	38
1301	5041	0.081	39
1301	5042	0.081	40
1301	5446	0.087	41
1301	5447	0.087	42
1301	5448	0.087	43
1301	5449	0.087	44
1301	5450	0.087	45
1301	5451	0.087	46
1301	5452	0.087	47
1301	5453	0.087	48
1301	5454	0.087	49
1301	5455	0.087	50
1301	5821	0.093	51
1301	5822	0.093	52
1301	5823	0.093	53
1301	5824	0.093	54
1301	5825	0.093	55
1301	5826	0.093	56
1301	5827	0.093	57
1301	5828	0.093	58
1301	5829	0.093	59
1301	5830	0.093	60
1301	6193	0.099	61
1301	6194	0.099	62
1301	6195	0.099	63
1301	6196	0.099	64
1301	6197	0.099	65
1301	6198	0.099	66
1301	6199	0.099	67
1301	6200	0.099	68
1301	6201	0.099	69
1301	6202	0.099	70
1301	6563	0.105	71
1301	6564	0.105	72
1301	6565	0.105	73
1301	6566	0.105	74
1301	6567	0.105	75
1301	6568	0.105	76
1301	6569	0.105	77
1301	6570	0.105	78
1301	6571	0.105	79
1301	6572	0.105	80
1301	15429	0.2570005104	79
1301	15429	0.2570005104	78
1301	15429	0.2570005104	77
1301	15429	0.2570005104	76
1301	15429	0.2570005104	75
1301	15429	0.2570005104	74
1301	15429	0.2570005104	73
1301	15429	0.2570005104	72
1301	15429	0.2570005104	71
1301	15429	0.2570005104	70
1301	15429	0.2570005104	69
1301	15429	0.2570005104	68
1301	15429	0.2570005104	67
1301	15429	0.2570005104	66
1301	15429	0.2570005104	65
1301	15429	0.2570005104	64
1301	15429	0.2570005104	63
1301	15429	0.2570005104	62
1301	15429	0.2570005104	61
1301	15429	0.2570005104	60
1301	15429	0.2570005104	59
1301	15429	0.2570005104	58
1301	15429	0.2570005104	57
1301	15429	0.2570005104	56
1301	15429	0.2570005104	55
1301	15429	0.2570005104	54
1301	15429	0.2570005104	53
1301	15429	0.2570005104	52
1301	15429	0.2570005104	51
1301	15429	0.2570005104	50
1301	15429	0.2570005104	49
1301	15429	0.2570005104	48
1301	15429	0.2570005104	47
1301	15429	0.2570005104	46
1301	15429	0.2570005104	45
1301	15429	0.2570005104	44
1301	15429	0.2570005104	43
1301	15429	0.2570005104	42
1301	15429	0.2570005104	41
1301	15429	0.2570005104	40
1301	15429	0.2570005104	39
1301	15429	0.2570005104	38
1301	15429	0.2570005104	37
1301	15429	0.2570005104	36
1301	15429	0.2570005104	35
1301	15429	0.2570005104	34
1301	15429	0.2570005104	33
1301	15429	0.2570005104	32
1301	15429	0.2570005104	31
1301	15429	0.2570005104	30
1301	15429	0.2570005104	29
1301	15429	0.2570005104	28
1301	15429	0.2570005104	27
1301	15429	0.2570005104	26
1301	15429	0.2570005104	25
1301	15429	0.2570005104	24
1301	15429	0.2570005104	23
1301	15429	0.2570005104	22
1301	15429	0.2570005104	21
1301	15429	0.2570005104	20
1301	15429	0.2570005104	19
1301	15429	0.2570005104	18
1301	15429	0.2570005104	17
1301	15429	0.2570005104	16
1301	15429	0.2570005104	15
1301	15429	0.2570005104	14
1301	15429	0.2570005104	13
1301	15429	0.2570005104	12
1301	15429	0.2570005104	11
1301	15429	0.2570005104	10
1301	15429	0.2570005104	9
1301	15429	0.2570005104	8
1301	15429	0.2570005104	7
1301	15429	0.2570005104	6
1301	15429	0.2570005104	5
1301	15429	0.2570005104	4
1301	15429	0.2570005104	3
1301	15429	0.2570005104	2
1301	15429	0.2570005104	1
1301	15429	0.2570005104	0
1304	659	0.0070001912	0
1304	12274	0.2070005104	0
1304	24154	0.4070019656	0
1305	605	0.007	1
1305	605	0.007	0
1305	606	0.007	1
1305	607	0.007	2
1305	608	0.007	3
1305	609	0.007	4
1305	610	0.007	5
1305	611	0.007	6
1305	612	0.007	7
1305	613	0.007	8
1305	614	0.007	9
1305	659	0.0070001912	8
1305	659	0.0070001912	7
1305	659	0.0070001912	6
1305	659	0.0070001912	5
1305	659	0.0070001912	4
1305	659	0.0070001912	3
1305	659	0.0070001912	2
1305	659	0.0070001912	1
1305	659	0.0070001912	0
1305	932	0.013	1
1305	933	0.013	2
1305	934	0.013	3
1305	935	0.013	4
1305	936	0.013	5
1305	937	0.013	6
1305	938	0.013	7
1305	939	0.013	8
1305	940	0.013	9
1305	941	0.013	10
1305	1188	0.019	11
1305	1189	0.019	12
1305	1190	0.019	13
1305	1191	0.019	14
1305	1192	0.019	15
1305	1193	0.019	16
1305	1194	0.019	17
1305	1195	0.019	18
1305	1196	0.019	19
1305	1197	0.019	20
1305	1476	0.025	21
1305	1477	0.025	22
1305	1478	0.025	23
1305	1479	0.025	24
1305	1480	0.025	25
1305	1481	0.025	26
1305	1482	0.025	27
1305	1483	0.025	28
1305	1484	0.025	29
1305	1485	0.025	30
1305	1797	0.031	31
1305	1798	0.031	32
1305	1799	0.031	33
1305	1800	0.031	34
1305	1801	0.031	35
1305	1802	0.031	36
1305	1803	0.031	37
1305	1804	0.031	38
1305	1805	0.031	39
1305	1806	0.031	40
1305	2145	0.037	41
1305	2146	0.037	42
1305	2147	0.037	43
1305	2148	0.037	44
1305	2149	0.037	45
1305	2150	0.037	46
1305	2151	0.037	47
1305	2152	0.037	48
1305	2153	0.037	49
1305	2154	0.037	50
1305	2528	0.043	51
1305	2529	0.043	52
1305	2530	0.043	53
1305	2531	0.043	54
1305	2532	0.043	55
1305	2533	0.043	56
1305	2534	0.043	57
1305	2535	0.043	58
1305	2536	0.043	59
1305	2537	0.043	60
1305	2887	0.049	61
1305	2888	0.049	62
1305	2889	0.049	63
1305	2890	0.049	64
1305	2891	0.049	65
1305	2892	0.049	66
1305	2893	0.049	67
1305	2894	0.049	68
1305	2895	0.049	69
1305	2896	0.049	70
1305	3237	0.055	71
1305	3238	0.055	72
1305	3239	0.055	73
1305	3240	0.055	74
1305	3241	0.055	75
1305	3242	0.055	76
1305	3243	0.055	77
1305	3244	0.055	78
1305	3245	0.055	79
1305	3246	0.055	80
1305	12274	0.2070005104	79
1305	12274	0.2070005104	78
1305	12274	0.2070005104	77
1305	12274	0.2070005104	76
1305	12274	0.2070005104	75
1305	12274	0.2070005104	74
1305	12274	0.2070005104	73
1305	12274	0.2070005104	72
1305	12274	0.2070005104	71
1305	12274	0.2070005104	70
1305	12274	0.2070005104	69
1305	12274	0.2070005104	68
1305	12274	0.2070005104	67
1305	12274	0.2070005104	66
1305	12274	0.2070005104	65
1305	12274	0.2070005104	64
1305	12274	0.2070005104	63
1305	12274	0.2070005104	62
1305	12274	0.2070005104	61
1305	12274	0.2070005104	60
1305	12274	0.2070005104	59
1305	12274	0.2070005104	58
1305	12274	0.2070005104	57
1305	12274	0.2070005104	56
1305	12274	0.2070005104	55
1305	12274	0.2070005104	54
1305	12274	0.2070005104	53
1305	12274	0.2070005104	52
1305	12274	0.2070005104	51
1305	12274	0.2070005104	50
1305	12274	0.2070005104	49
1305	12274	0.2070005104	48
1305	12274	0.2070005104	47
1305	12274	0.2070005104	46
1305	12274	0.2070005104	45
1305	12274	0.2070005104	44
1305	12274	0.2070005104	43
1305	12274	0.2070005104	42
1305	12274	0.2070005104	41
1305	12274	0.2070005104	40
1305	12274	0.2070005104	39
1305	12274	0.2070005104	38
1305	12274	0.2070005104	37
1305	12274	0.2070005104	36
1305	12274	0.2070005104	35
1305	12274	0.2070005104	34
1305	12274	0.2070005104	33
1305	12274	0.2070005104	32
1305	12274	0.2070005104	31
1305	12274	0.2070005104	30
1305	12274	0.2070005104	29
1305	12274	0.2070005104	28
1305	12274	0.2070005104	27
1305	12274	0.2070005104	26
1305	12274	0.2070005104	25
1305	12274	0.2070005104	24
1305	12274	0.2070005104	23
1305	12274	0.2070005104	22
1305	12274	0.2070005104	21
1305	12274	0.2070005104	20
1305	12274	0.2070005104	19
1305	12274	0.2070005104	18
1305	12274	0.2070005104	17
1305	12274	0.2070005104	16
1305	12274	0.2070005104	15
1305	12274	0.2070005104	14
1305	12274	0.2070005104	13
1305	12274	0.2070005104	12
1305	12274	0.2070005104	11
1305	12274	0.2070005104	10
1305	12274	0.2070005104	9
1305	12274	0.2070005104	8
1305	12274	0.2070005104	7
1305	12274	0.2070005104	6
1305	12274	0.2070005104	5
1305	12274	0.2070005104	4
1305	12274	0.2070005104	3
1305	12274	0.2070005104	2
1305	12274	0.2070005104	1
1305	12274	0.2070005104	0
1319	1225	0.019660798032	7504
1319	168877	3.019660798032	7504
1320	1225	0.019660798032	7504
1320	168877	3.019660798032	7504
1322	1225	0.019660798032	0
1322	168877	3.019660798032	0
1333	1225	0.019660798032	0
1333	168877	3.019660798032	0
1343	1348	0.022555459228	7504
1343	169065	3.022555459228	7504
1344	1348	0.022555459228	7504
1344	169065	3.022555459228	7504
1346	1348	0.022555459228	0
1346	169065	3.022555459228	0
1357	1348	0.022555459228	0
1357	169065	3.022555459228	0
1367	1517	0.025952952534	7504
1367	169243	3.025952952534	7504
1368	1517	0.025952952534	7504
1368	169243	3.025952952534	7504
1370	1517	0.025952952534	0
1370	169243	3.025952952534	0
1381	1517	0.025952952534	0
1381	169243	3.025952952534	0
1391	1660	0.028524626123	7504
1392	1660	0.028524626123	7504
1394	1660	0.028524626123	0
1405	1660	0.028524626123	0
1415	1919	0.032752273618	7504
1416	1919	0.032752273618	7504
1418	1919	0.032752273618	0
1429	1919	0.032752273618	0
1439	2212	0.037729873816	7504
1440	2212	0.037729873816	7504
1442	2212	0.037729873816	0
1453	2212	0.037729873816	0
1463	2739	0.046595396413	7504
1464	2739	0.046595396413	7504
1466	2739	0.046595396413	0
1477	2739	0.046595396413	0
1487	3120	0.053440309435	7504
1488	3120	0.053440309435	7504
1490	3120	0.053440309435	0
1501	3120	0.053440309435	0
1511	3128	0.05394782705	7504
1512	3128	0.05394782705	7504
1514	3128	0.05394782705	0
1525	3128	0.05394782705	0
1535	3292	0.055913616046	7504
1536	3292	0.055913616046	7504
1538	3292	0.055913616046	0
1549	3292	0.055913616046	0
1559	3567	0.058808041334	7504
1560	3567	0.058808041334	7504
1562	3567	0.058808041334	0
1573	3567	0.058808041334	0
1583	3671	0.060918334927	7504
1584	3671	0.060918334927	7504
1586	3671	0.060918334927	0
1597	3671	0.060918334927	0
1607	4025	0.066956260251	7504
1608	4025	0.066956260251	7504
1610	4025	0.066956260251	0
1621	4025	0.066956260251	0
1631	4189	0.068834142487	7504
1632	4189	0.068834142487	7504
1634	4189	0.068834142487	0
1645	4189	0.068834142487	0
1655	4278	0.069116189484	7504
1656	4278	0.069116189484	7504
1658	4278	0.069116189484	0
1669	4278	0.069116189484	0
1679	4593	0.074373740533	7504
1680	4593	0.074373740533	7504
1682	4593	0.074373740533	0
1693	4593	0.074373740533	0
1703	4683	0.07505697578	7504
1704	4683	0.07505697578	7504
1706	4683	0.07505697578	0
1717	4683	0.07505697578	0
1727	5138	0.08215464002	7504
1728	5138	0.08215464002	7504
1730	5138	0.08215464002	0
1741	5138	0.08215464002	0
1751	5186	0.083428886256	7504
1752	5186	0.083428886256	7504
1754	5186	0.083428886256	0
1765	5186	0.083428886256	0
1775	5409	0.086610205313	7504
1776	5409	0.086610205313	7504
1778	5409	0.086610205313	0
1789	5409	0.086610205313	0
