file 13045080 1588964704                                        
version 2
run CAIN-45-20200508-15:53:33-11459
attr configname CAIN
attr datetime 20200508-15:53:33
attr dist 200
attr experiment CAIN
attr extAllocType "\"FULL_ALLOC\""
attr inifile omnetpp.ini
attr iterationvars "$numUe=20, $pwr=-50, $dist=200, $mob=\"./movements/RPGM-0.5.movements\", $extAllocType=\"FULL_ALLOC\""
attr iterationvars2 "$numUe=20, $pwr=-50, $dist=200, $mob=\"./movements/RPGM-0.5.movements\", $extAllocType=\"FULL_ALLOC\", $repetition=0"
attr measurement "$numUe=20, $pwr=-50, $dist=200, $mob=\"./movements/RPGM-0.5.movements\", $extAllocType=\"FULL_ALLOC\""
attr mob "\"./movements/RPGM-0.5.movements\""
attr network lte.simulations.networks.CAIN
attr numUe 20
attr processid 11459
attr pwr -50
attr repetition 0
attr replication #0
attr resultdir results
attr runnumber 45
attr seedset 0
param **.**.amcMode "\"AUTO\""
param **.amcMode "\"D2D\""
param **.cainNetwork true
param **.channelControl.alpha 1.0
param **.channelControl.carrierFrequency 2100e+6Hz
param **.channelControl.pMax 10W
param **.d2dCqi 7
param **.deployer.numRbDl 50
param **.deployer.numRbUl 50
param **.distThresh ${dist=200}
param **.fbDelay 1
param **.feedbackComputation "xmldoc(\"config_channel.xml\")"
param **.mobility.constraintAreaMaxX 1000m
param **.mobility.constraintAreaMaxY 1000m
param **.mobility.constraintAreaMaxZ 0m
param **.mobility.constraintAreaMinX 0m
param **.mobility.constraintAreaMinY 0m
param **.mobility.constraintAreaMinZ 0m
param **.nic.phy.channelModel "xmldoc(\"config_channel.xml\")"
param **.numBands 50
param **.pwrThresh "${pwr= -50}"
param **.qtdThresh 3
param **.rbAllocationType "\"localized\""
param **.routingRecorder.enabled false
param **.tcpApp[*].tClose -1s
param **.ueD2DTx[*].mobility.changeAngleBy "normal(0deg, 30deg)"
param **.ueD2DTx[*].mobility.changeInterval "normal(5s, 0.1s)"
param **.ueD2DTx[*].mobility.nodeId -1
param **.ueD2DTx[*].mobility.speed "normal(2mps, 0.01mps)"
param **.ueD2DTx[*].mobility.traceFile "${mob=\"./movements/RWP-0.0.movements\",\"./movements/RWP-0.5.movements\",\"./movements/RPGM-0.0.movements\",\"./movements/RPGM-0.5.movements\",\"./movements/RWPRPGM-0.0.movements\",\"./movements/RWPRPGM-0.5.movements\"}"
param **.ueD2DTx[*].mobilityType "\"BonnMotionMobility\""
param **.usePreconfiguredTxParams false
param *.eNodeB*.numX2Apps 1
param *.eNodeB*.x2App[*].server.localPort "5000 + ancestorIndex(1)"
param *.eNodeB.d2dCapable false
param *.eNodeB.mobility.initFromDisplayString false
param *.eNodeB.mobility.initialX 300m
param *.eNodeB.mobility.initialY 300m
param *.eNodeB.nic.phy.enableD2DCqiReporting true
param *.eNodeB.txPower 19952.62315mw
param *.eNodeB.x2App[0].client.connectAddress "\"eNodeB1%x2ppp0\""
param *.eNodeB1.d2dCapable true
param *.eNodeB1.mobility.initFromDisplayString false
param *.eNodeB1.mobility.initialX 700m
param *.eNodeB1.mobility.initialY 300m
param *.eNodeB1.nic.phy.enableD2DCqiReporting true
param *.eNodeB1.txPower 19952.62315mw
param *.eNodeB1.x2App[0].client.connectAddress "\"eNodeB%x2ppp0\""
param *.extCell[*].bandAllocationType "${extAllocType=\"FULL_ALLOC\",\"RANDOM_ALLOC\",\"CONTIGUOUS_ALLOC\"}"
param *.extCell[*].bandUtilization 0.5
param *.extCell[*].txDirection "\"ANISOTROPIC\""
param *.extCell[*].txPower 20
param *.extCell[0].position_x 100m
param *.extCell[0].position_y 600m
param *.extCell[0].txAngle 315
param *.extCell[1].position_x 600m
param *.extCell[1].position_y 600m
param *.extCell[1].txAngle 225
param *.numExtCells 2
param *.numUeCell 0
param *.numUeD2DRx 1
param *.numUeD2DTx 1
param *.ue*.macCellId 1
param *.ue*.masterId 1
param *.ue*.mobility.initFromDisplayString false
param *.ue*[0].macCellId 1
param *.ue*[0].masterId 1
param *.ue*[0].mobility.initFromDisplayString false
param *.ueD2D*.numTcpApps 1
param *.ueD2D*[*].d2dCapable true
param *.ueD2D*[0].d2dCapable false
param *.ueD2D*[0].numTcpApps 1
param *.ueD2DRx[0].mobility.initialX 310m
param *.ueD2DRx[0].mobility.initialY 350m
param *.ueD2DRx[0].tcpApp[*].localPort 1000
param *.ueD2DRx[0].tcpApp[*].typename "\"TCPSinkApp\""
param *.ueD2DTx*.nic.d2dPeerAddresses "\"ueD2DTx[1]\""
param *.ueD2DTx*.tcpApp[*].connectAddress "\"ueD2DTx[0]\""
param *.ueD2DTx*.tcpApp[*].localAddress "\"ueD2DTx\""
param *.ueD2DTx*.tcpApp[*].localPort 1000
param *.ueD2DTx*.tcpApp[*].sendBytes 1GiB
param *.ueD2DTx*.tcpApp[*].typename "\"TCPSessionApp\""
param *.ueD2DTx*.tcpApp[0].active true
param *.ueD2DTx*.tcpApp[0].connectPort 1000
param *.ueD2DTx*.tcpApp[0].tOpen uniform(0.010s,0.1s)
param *.ueD2DTx*.tcpApp[0].tSend uniform(0.15s,0.5s)
param *.ueD2DTx[0].mobility.initialX 290m
param *.ueD2DTx[0].mobility.initialY 350m
param *.ueD2DTx[0].tcpApp[*].localPort 1000
param *.ueD2DTx[0].tcpApp[*].sendBytes 1GiB
param *.ueD2DTx[0].tcpApp[*].typename "\"TCPSessionApp\""
param *.ueD2DTx[0].tcpApp[0].active true
param *.ueD2DTx[0].tcpApp[0].connectAddress "\"ueD2DRx[0]\""
param *.ueD2DTx[0].tcpApp[0].connectPort 1000
param *.ueD2DTx[0].tcpApp[0].localAddress "\"ueD2DTx[0]\""
param *.ueD2DTx[0].tcpApp[0].tOpen uniform(0.010s,0.1s)
param *.ueD2DTx[0].tcpApp[0].tSend uniform(0.15s,0.5s)
param *.ueD2DTx[1].mobility.initialX 690m
param *.ueD2DTx[1].mobility.initialY 250m

vector 8  CAIN.server.ppp[0].queue  queueLength:vector  ETV
attr interpolationmode  sample-hold
attr title  "queue length, vector"
vector 9  CAIN.server.ppp[0].ppp  txState:vector  ETV
attr interpolationmode  sample-hold
attr title  "tx state, vector"
vector 24  CAIN.router.ppp[0].queue  queueLength:vector  ETV
attr interpolationmode  sample-hold
attr title  "queue length, vector"
vector 25  CAIN.router.ppp[0].ppp  txState:vector  ETV
attr interpolationmode  sample-hold
attr title  "tx state, vector"
vector 35  CAIN.router.ppp[1].queue  queueLength:vector  ETV
attr interpolationmode  sample-hold
attr title  "queue length, vector"
vector 36  CAIN.router.ppp[1].ppp  txState:vector  ETV
attr interpolationmode  sample-hold
attr title  "tx state, vector"
vector 56  CAIN.pgw.ppp[0].queue  queueLength:vector  ETV
attr interpolationmode  sample-hold
attr title  "queue length, vector"
vector 57  CAIN.pgw.ppp[0].ppp  txState:vector  ETV
attr interpolationmode  sample-hold
attr title  "tx state, vector"
vector 67  CAIN.pgw.ppp[1].queue  queueLength:vector  ETV
attr interpolationmode  sample-hold
attr title  "queue length, vector"
vector 68  CAIN.pgw.ppp[1].ppp  txState:vector  ETV
attr interpolationmode  sample-hold
attr title  "tx state, vector"
vector 78  CAIN.pgw.pppInterface.queue  queueLength:vector  ETV
attr interpolationmode  sample-hold
attr title  "queue length, vector"
vector 79  CAIN.pgw.pppInterface.ppp  txState:vector  ETV
attr interpolationmode  sample-hold
attr title  "tx state, vector"
vector 120  CAIN.eNodeB.pppIf.queue  queueLength:vector  ETV
attr interpolationmode  sample-hold
attr title  "queue length, vector"
vector 121  CAIN.eNodeB.pppIf.ppp  txState:vector  ETV
attr interpolationmode  sample-hold
attr title  "tx state, vector"
vector 131  CAIN.eNodeB.x2ppp[0].queue  queueLength:vector  ETV
attr interpolationmode  sample-hold
attr title  "queue length, vector"
vector 132  CAIN.eNodeB.x2ppp[0].ppp  txState:vector  ETV
attr interpolationmode  sample-hold
attr title  "tx state, vector"
vector 178  CAIN.eNodeB1.pppIf.queue  queueLength:vector  ETV
attr interpolationmode  sample-hold
attr title  "queue length, vector"
vector 179  CAIN.eNodeB1.pppIf.ppp  txState:vector  ETV
attr interpolationmode  sample-hold
attr title  "tx state, vector"
vector 189  CAIN.eNodeB1.x2ppp[0].queue  queueLength:vector  ETV
attr interpolationmode  sample-hold
attr title  "queue length, vector"
vector 190  CAIN.eNodeB1.x2ppp[0].ppp  txState:vector  ETV
attr interpolationmode  sample-hold
attr title  "tx state, vector"
vector 231  CAIN.ueD2DTx[0].nic.phy  servingCell:vector  ETV
attr source  servingCell
attr title  "ID of the serving eNodeB for the UE, vector"
attr unit  ""
vector 263  CAIN.ueD2DTx[1].nic.phy  servingCell:vector  ETV
attr source  servingCell
attr title  "ID of the serving eNodeB for the UE, vector"
attr unit  ""
vector 295  CAIN.ueD2DTx[2].nic.phy  servingCell:vector  ETV
attr source  servingCell
attr title  "ID of the serving eNodeB for the UE, vector"
attr unit  ""
vector 327  CAIN.ueD2DTx[3].nic.phy  servingCell:vector  ETV
attr source  servingCell
attr title  "ID of the serving eNodeB for the UE, vector"
attr unit  ""
vector 359  CAIN.ueD2DTx[4].nic.phy  servingCell:vector  ETV
attr source  servingCell
attr title  "ID of the serving eNodeB for the UE, vector"
attr unit  ""
vector 391  CAIN.ueD2DTx[5].nic.phy  servingCell:vector  ETV
attr source  servingCell
attr title  "ID of the serving eNodeB for the UE, vector"
attr unit  ""
vector 423  CAIN.ueD2DTx[6].nic.phy  servingCell:vector  ETV
attr source  servingCell
attr title  "ID of the serving eNodeB for the UE, vector"
attr unit  ""
vector 455  CAIN.ueD2DTx[7].nic.phy  servingCell:vector  ETV
attr source  servingCell
attr title  "ID of the serving eNodeB for the UE, vector"
attr unit  ""
vector 487  CAIN.ueD2DTx[8].nic.phy  servingCell:vector  ETV
attr source  servingCell
attr title  "ID of the serving eNodeB for the UE, vector"
attr unit  ""
vector 519  CAIN.ueD2DTx[9].nic.phy  servingCell:vector  ETV
attr source  servingCell
attr title  "ID of the serving eNodeB for the UE, vector"
attr unit  ""
vector 551  CAIN.ueD2DTx[10].nic.phy  servingCell:vector  ETV
attr source  servingCell
attr title  "ID of the serving eNodeB for the UE, vector"
attr unit  ""
vector 583  CAIN.ueD2DTx[11].nic.phy  servingCell:vector  ETV
attr source  servingCell
attr title  "ID of the serving eNodeB for the UE, vector"
attr unit  ""
vector 615  CAIN.ueD2DTx[12].nic.phy  servingCell:vector  ETV
attr source  servingCell
attr title  "ID of the serving eNodeB for the UE, vector"
attr unit  ""
vector 647  CAIN.ueD2DTx[13].nic.phy  servingCell:vector  ETV
attr source  servingCell
attr title  "ID of the serving eNodeB for the UE, vector"
attr unit  ""
vector 679  CAIN.ueD2DTx[14].nic.phy  servingCell:vector  ETV
attr source  servingCell
attr title  "ID of the serving eNodeB for the UE, vector"
attr unit  ""
vector 711  CAIN.ueD2DTx[15].nic.phy  servingCell:vector  ETV
attr source  servingCell
attr title  "ID of the serving eNodeB for the UE, vector"
attr unit  ""
vector 743  CAIN.ueD2DTx[16].nic.phy  servingCell:vector  ETV
attr source  servingCell
attr title  "ID of the serving eNodeB for the UE, vector"
attr unit  ""
vector 775  CAIN.ueD2DTx[17].nic.phy  servingCell:vector  ETV
attr source  servingCell
attr title  "ID of the serving eNodeB for the UE, vector"
attr unit  ""
vector 807  CAIN.ueD2DTx[18].nic.phy  servingCell:vector  ETV
attr source  servingCell
attr title  "ID of the serving eNodeB for the UE, vector"
attr unit  ""
vector 839  CAIN.ueD2DTx[19].nic.phy  servingCell:vector  ETV
attr source  servingCell
attr title  "ID of the serving eNodeB for the UE, vector"
attr unit  ""
vector 863  CAIN.eNodeB.sctp  "Throughput of Association 3"  ETV
vector 885  CAIN.eNodeB1.sctp  "Throughput of Association 4"  ETV
vector 907  CAIN.eNodeB.sctp  "Throughput of Association 1"  ETV
vector 927  CAIN.eNodeB.sctp  "Fast Recovery State 1:10.0.5.2"  ETV
vector 956  CAIN.eNodeB1.sctp  "Throughput of Association 2"  ETV
vector 976  CAIN.eNodeB1.sctp  "Fast Recovery State 2:10.0.5.1"  ETV
vector 128  CAIN.eNodeB.x2ppp[0].queue  rcvdPk:vector(packetBytes)  ETV
attr interpolationmode  none
attr title  "received packets, vector(packetBytes)"
vector 130  CAIN.eNodeB.x2ppp[0].queue  queueingTime:vector  ETV
attr interpolationmode  none
attr title  "queueing time, vector"
vector 186  CAIN.eNodeB1.x2ppp[0].queue  rcvdPk:vector(packetBytes)  ETV
attr interpolationmode  none
attr title  "received packets, vector(packetBytes)"
vector 188  CAIN.eNodeB1.x2ppp[0].queue  queueingTime:vector  ETV
attr interpolationmode  none
attr title  "queueing time, vector"
vector 137  CAIN.eNodeB.x2ppp[0].ppp  rcvdPkFromHL:vector(packetBytes)  ETV
attr interpolationmode  none
attr source  packetReceivedFromUpper
attr title  "packets received from higher layer, vector(packetBytes)"
vector 133  CAIN.eNodeB.x2ppp[0].ppp  txPk:vector(packetBytes)  ETV
attr interpolationmode  none
attr source  packetSentToLower
attr title  "packets transmitted, vector(packetBytes)"
vector 195  CAIN.eNodeB1.x2ppp[0].ppp  rcvdPkFromHL:vector(packetBytes)  ETV
attr interpolationmode  none
attr source  packetReceivedFromUpper
attr title  "packets received from higher layer, vector(packetBytes)"
vector 191  CAIN.eNodeB1.x2ppp[0].ppp  txPk:vector(packetBytes)  ETV
attr interpolationmode  none
attr source  packetSentToLower
attr title  "packets transmitted, vector(packetBytes)"
vector 192  CAIN.eNodeB1.x2ppp[0].ppp  rxPkOk:vector(packetBytes)  ETV
attr interpolationmode  none
attr source  rxPkOk
attr title  "packets received OK, vector(packetBytes)"
vector 196  CAIN.eNodeB1.x2ppp[0].ppp  passedUpPk:vector(packetBytes)  ETV
attr interpolationmode  none
attr source  packetSentToUpper
attr title  "packets passed to higher layer, vector(packetBytes)"
vector 134  CAIN.eNodeB.x2ppp[0].ppp  rxPkOk:vector(packetBytes)  ETV
attr interpolationmode  none
attr source  rxPkOk
attr title  "packets received OK, vector(packetBytes)"
vector 138  CAIN.eNodeB.x2ppp[0].ppp  passedUpPk:vector(packetBytes)  ETV
attr interpolationmode  none
attr source  packetSentToUpper
attr title  "packets passed to higher layer, vector(packetBytes)"
vector 1005  CAIN.eNodeB1.sctp  "Throughput of Association 4"  ETV
vector 882  CAIN.eNodeB1.sctp  "Peer Rwnd 4"  ETV
vector 1025  CAIN.eNodeB1.sctp  "Fast Recovery State 5:10.0.4.1"  ETV
vector 1052  CAIN.eNodeB1.sctp  "Fast Recovery State 5:10.0.2.2"  ETV
vector 1079  CAIN.eNodeB1.sctp  "Fast Recovery State 5:10.0.5.1"  ETV
vector 1108  CAIN.eNodeB.sctp  "Throughput of Association 3"  ETV
vector 860  CAIN.eNodeB.sctp  "Peer Rwnd 3"  ETV
vector 1128  CAIN.eNodeB.sctp  "Fast Recovery State 6:10.0.4.2"  ETV
vector 1155  CAIN.eNodeB.sctp  "Fast Recovery State 6:10.0.3.2"  ETV
vector 1182  CAIN.eNodeB.sctp  "Fast Recovery State 6:10.0.5.2"  ETV
vector 904  CAIN.eNodeB.sctp  "Peer Rwnd 1"  ETV
vector 1209  CAIN.eNodeB.sctp  "Fast Recovery State 1:10.0.4.2"  ETV
vector 1236  CAIN.eNodeB.sctp  "Fast Recovery State 1:10.0.3.2"  ETV
vector 953  CAIN.eNodeB1.sctp  "Peer Rwnd 2"  ETV
vector 1263  CAIN.eNodeB1.sctp  "Fast Recovery State 2:10.0.4.1"  ETV
vector 1290  CAIN.eNodeB1.sctp  "Fast Recovery State 2:10.0.2.2"  ETV
vector 1035  CAIN.eNodeB1.sctp  "Slow Start Threshold 5:10.0.2.2"  ETV
vector 1036  CAIN.eNodeB1.sctp  "Congestion Window 5:10.0.2.2"  ETV
vector 1037  CAIN.eNodeB1.sctp  "Bandwidth 5:10.0.2.2"  ETV
vector 1040  CAIN.eNodeB1.sctp  "HB Sent 5:10.0.2.2"  ETV
vector 1033  CAIN.eNodeB1.sctp  "RTO 5:10.0.2.2"  ETV
vector 1008  CAIN.eNodeB1.sctp  "Slow Start Threshold 5:10.0.4.1"  ETV
vector 1009  CAIN.eNodeB1.sctp  "Congestion Window 5:10.0.4.1"  ETV
vector 1010  CAIN.eNodeB1.sctp  "Bandwidth 5:10.0.4.1"  ETV
vector 1013  CAIN.eNodeB1.sctp  "HB Sent 5:10.0.4.1"  ETV
vector 1006  CAIN.eNodeB1.sctp  "RTO 5:10.0.4.1"  ETV
vector 1062  CAIN.eNodeB1.sctp  "Slow Start Threshold 5:10.0.5.1"  ETV
vector 1063  CAIN.eNodeB1.sctp  "Congestion Window 5:10.0.5.1"  ETV
vector 1064  CAIN.eNodeB1.sctp  "Bandwidth 5:10.0.5.1"  ETV
vector 1060  CAIN.eNodeB1.sctp  "RTO 5:10.0.5.1"  ETV
vector 1138  CAIN.eNodeB.sctp  "Slow Start Threshold 6:10.0.3.2"  ETV
vector 1139  CAIN.eNodeB.sctp  "Congestion Window 6:10.0.3.2"  ETV
vector 1140  CAIN.eNodeB.sctp  "Bandwidth 6:10.0.3.2"  ETV
vector 1143  CAIN.eNodeB.sctp  "HB Sent 6:10.0.3.2"  ETV
vector 1136  CAIN.eNodeB.sctp  "RTO 6:10.0.3.2"  ETV
vector 1111  CAIN.eNodeB.sctp  "Slow Start Threshold 6:10.0.4.2"  ETV
vector 1112  CAIN.eNodeB.sctp  "Congestion Window 6:10.0.4.2"  ETV
vector 1113  CAIN.eNodeB.sctp  "Bandwidth 6:10.0.4.2"  ETV
vector 1116  CAIN.eNodeB.sctp  "HB Sent 6:10.0.4.2"  ETV
vector 1109  CAIN.eNodeB.sctp  "RTO 6:10.0.4.2"  ETV
vector 1165  CAIN.eNodeB.sctp  "Slow Start Threshold 6:10.0.5.2"  ETV
vector 1166  CAIN.eNodeB.sctp  "Congestion Window 6:10.0.5.2"  ETV
vector 1167  CAIN.eNodeB.sctp  "Bandwidth 6:10.0.5.2"  ETV
vector 1163  CAIN.eNodeB.sctp  "RTO 6:10.0.5.2"  ETV
vector 916  CAIN.eNodeB.sctp  "HB ACK Sent 1:10.0.5.2"  ETV
vector 917  CAIN.eNodeB.sctp  "HB Received 1:10.0.5.2"  ETV
vector 965  CAIN.eNodeB1.sctp  "HB ACK Sent 2:10.0.5.1"  ETV
vector 966  CAIN.eNodeB1.sctp  "HB Received 2:10.0.5.1"  ETV
vector 1219  CAIN.eNodeB.sctp  "Slow Start Threshold 1:10.0.3.2"  ETV
vector 1220  CAIN.eNodeB.sctp  "Congestion Window 1:10.0.3.2"  ETV
vector 1221  CAIN.eNodeB.sctp  "Bandwidth 1:10.0.3.2"  ETV
vector 1224  CAIN.eNodeB.sctp  "HB Sent 1:10.0.3.2"  ETV
vector 1217  CAIN.eNodeB.sctp  "RTO 1:10.0.3.2"  ETV
vector 1192  CAIN.eNodeB.sctp  "Slow Start Threshold 1:10.0.4.2"  ETV
vector 1193  CAIN.eNodeB.sctp  "Congestion Window 1:10.0.4.2"  ETV
vector 1194  CAIN.eNodeB.sctp  "Bandwidth 1:10.0.4.2"  ETV
vector 1197  CAIN.eNodeB.sctp  "HB Sent 1:10.0.4.2"  ETV
vector 1190  CAIN.eNodeB.sctp  "RTO 1:10.0.4.2"  ETV
vector 910  CAIN.eNodeB.sctp  "Slow Start Threshold 1:10.0.5.2"  ETV
vector 911  CAIN.eNodeB.sctp  "Congestion Window 1:10.0.5.2"  ETV
vector 912  CAIN.eNodeB.sctp  "Bandwidth 1:10.0.5.2"  ETV
vector 908  CAIN.eNodeB.sctp  "RTO 1:10.0.5.2"  ETV
vector 1273  CAIN.eNodeB1.sctp  "Slow Start Threshold 2:10.0.2.2"  ETV
vector 1274  CAIN.eNodeB1.sctp  "Congestion Window 2:10.0.2.2"  ETV
vector 1275  CAIN.eNodeB1.sctp  "Bandwidth 2:10.0.2.2"  ETV
vector 1278  CAIN.eNodeB1.sctp  "HB Sent 2:10.0.2.2"  ETV
vector 1271  CAIN.eNodeB1.sctp  "RTO 2:10.0.2.2"  ETV
vector 1246  CAIN.eNodeB1.sctp  "Slow Start Threshold 2:10.0.4.1"  ETV
vector 1247  CAIN.eNodeB1.sctp  "Congestion Window 2:10.0.4.1"  ETV
vector 1248  CAIN.eNodeB1.sctp  "Bandwidth 2:10.0.4.1"  ETV
vector 1251  CAIN.eNodeB1.sctp  "HB Sent 2:10.0.4.1"  ETV
vector 1244  CAIN.eNodeB1.sctp  "RTO 2:10.0.4.1"  ETV
vector 959  CAIN.eNodeB1.sctp  "Slow Start Threshold 2:10.0.5.1"  ETV
vector 960  CAIN.eNodeB1.sctp  "Congestion Window 2:10.0.5.1"  ETV
vector 961  CAIN.eNodeB1.sctp  "Bandwidth 2:10.0.5.1"  ETV
vector 957  CAIN.eNodeB1.sctp  "RTO 2:10.0.5.1"  ETV
vector 1173  CAIN.eNodeB.sctp  "HB ACK Received 6:10.0.5.2"  ETV
vector 1164  CAIN.eNodeB.sctp  "RTT 6:10.0.5.2"  ETV
vector 1070  CAIN.eNodeB1.sctp  "HB ACK Received 5:10.0.5.1"  ETV
vector 1061  CAIN.eNodeB1.sctp  "RTT 5:10.0.5.1"  ETV
vector 1171  CAIN.eNodeB.sctp  "HB ACK Sent 6:10.0.5.2"  ETV
vector 1172  CAIN.eNodeB.sctp  "HB Received 6:10.0.5.2"  ETV
vector 1068  CAIN.eNodeB1.sctp  "HB ACK Sent 5:10.0.5.1"  ETV
vector 1069  CAIN.eNodeB1.sctp  "HB Received 5:10.0.5.1"  ETV
vector 967  CAIN.eNodeB1.sctp  "HB ACK Received 2:10.0.5.1"  ETV
vector 958  CAIN.eNodeB1.sctp  "RTT 2:10.0.5.1"  ETV
vector 918  CAIN.eNodeB.sctp  "HB ACK Received 1:10.0.5.2"  ETV
vector 909  CAIN.eNodeB.sctp  "RTT 1:10.0.5.2"  ETV
vector 96  CAIN.eNodeB.nic.mac  receivedPacketFromLowerLayer:vector(packetBytes)  ETV
attr interpolationmode  none
attr source  receivedPacketFromLowerLayer
vector 1305  CAIN.eNodeB.sctp  "SendQueue of Association 6"  ETV
vector 1168  CAIN.eNodeB.sctp  "TSN Sent 6:10.0.5.2"  ETV
vector 1175  CAIN.eNodeB.sctp  "Outstanding Bytes 6:10.0.5.2"  ETV
vector 848  CAIN.eNodeB.sctp  "Outstanding Bytes 3:Total"  ETV
vector 1174  CAIN.eNodeB.sctp  "Queued Sent Bytes 6:10.0.5.2"  ETV
vector 847  CAIN.eNodeB.sctp  "Queued Sent Bytes 3:Total"  ETV
vector 963  CAIN.eNodeB1.sctp  "TSN Received 2:10.0.5.1"  ETV
vector 939  CAIN.eNodeB1.sctp  "Queued Received Bytes 2:Total"  ETV
vector 935  CAIN.eNodeB1.sctp  "Advertised Receiver Window 2"  ETV
vector 944  CAIN.eNodeB1.sctp  "Number of Total Gap Blocks Stored 2"  ETV
vector 945  CAIN.eNodeB1.sctp  "Number of Revokable Gap Blocks Stored 2"  ETV
vector 946  CAIN.eNodeB1.sctp  "Number of Non-Revokable Gap Blocks Stored 2"  ETV
vector 947  CAIN.eNodeB1.sctp  "Number of Duplicate TSNs Stored 2"  ETV
vector 951  CAIN.eNodeB1.sctp  "Length of SACK Sent 2"  ETV
vector 948  CAIN.eNodeB1.sctp  "Number of Revokable Gap Blocks Sent 2"  ETV
vector 949  CAIN.eNodeB1.sctp  "Number of Non-Revokable Gap Blocks Sent 2"  ETV
vector 950  CAIN.eNodeB1.sctp  "Number of Duplicate TSNs Sent 2"  ETV
vector 955  CAIN.eNodeB1.sctp  "End to End Delay of Association 2"  ETV
vector 199  CAIN.eNodeB1.x2App[0].client  rcvdPk:vector(packetBytes)  ETV
attr interpolationmode  none
attr source  rcvdPk
attr title  "packets received, vector(packetBytes)"
vector 1304  CAIN.eNodeB.sctp  "Number of Gap Blocks in Last SACK of Association 6"  ETV
vector 849  CAIN.eNodeB.sctp  "Number of Revokable Gap Blocks in SACK 3"  ETV
vector 850  CAIN.eNodeB.sctp  "Number of Non-Revokable Gap Blocks in SACK 3"  ETV
vector 1185  CAIN.eNodeB.sctp  "TSN Acked CumAck 6:10.0.5.2"  ETV
vector 1151  CAIN.eNodeB.sctp  "Number of Gap Acked Chunks in Last SACK 6:10.0.3.2"  ETV
vector 1152  CAIN.eNodeB.sctp  "Number of Non-Revokable Gap Acked Chunks in Last SACK 6:10.0.3.2"  ETV
vector 1153  CAIN.eNodeB.sctp  "Number of Gap Missed Chunks in Last SACK 6:10.0.3.2"  ETV
vector 1124  CAIN.eNodeB.sctp  "Number of Gap Acked Chunks in Last SACK 6:10.0.4.2"  ETV
vector 1125  CAIN.eNodeB.sctp  "Number of Non-Revokable Gap Acked Chunks in Last SACK 6:10.0.4.2"  ETV
vector 1126  CAIN.eNodeB.sctp  "Number of Gap Missed Chunks in Last SACK 6:10.0.4.2"  ETV
vector 1178  CAIN.eNodeB.sctp  "Number of Gap Acked Chunks in Last SACK 6:10.0.5.2"  ETV
vector 1179  CAIN.eNodeB.sctp  "Number of Non-Revokable Gap Acked Chunks in Last SACK 6:10.0.5.2"  ETV
vector 1180  CAIN.eNodeB.sctp  "Number of Gap Missed Chunks in Last SACK 6:10.0.5.2"  ETV
vector 859  CAIN.eNodeB.sctp  "Arwnd in Last SACK 3"  ETV
vector 1187  CAIN.eNodeB.sctp  "TSN PseudoCumAck 6:10.0.5.2"  ETV
vector 1188  CAIN.eNodeB.sctp  "TSN RTXPseudoCumAck 6:10.0.5.2"  ETV
vector 1181  CAIN.eNodeB.sctp  "Partial Bytes Acked 6:10.0.5.2"  ETV
vector 1333  CAIN.ueD2DTx[13].tcp  tcpRcvQueueBytes  ETV
vector 1320  CAIN.ueD2DTx[13].tcp  "advertised window"  ETV
vector 1319  CAIN.ueD2DTx[13].tcp  "receive window"  ETV
vector 1322  CAIN.ueD2DTx[13].tcp  "sent ack"  ETV
vector 621  CAIN.ueD2DTx[13].nic.pdcpRrc  receivedPacketFromUpperLayer:vector(packetBytes)  ETV
attr interpolationmode  none
attr source  receivedPacketFromUpperLayer
vector 624  CAIN.ueD2DTx[13].nic.pdcpRrc  sentPacketToLowerLayer:vector(packetBytes)  ETV
attr interpolationmode  none
attr source  sentPacketToLowerLayer
vector 625  CAIN.ueD2DTx[13].nic.mac  receivedPacketFromUpperLayer:vector(packetBytes)  ETV
attr interpolationmode  none
attr source  receivedPacketFromUpperLayer
vector 628  CAIN.ueD2DTx[13].nic.mac  sentPacketToLowerLayer:vector(packetBytes)  ETV
attr interpolationmode  none
attr source  sentPacketToLowerLayer
vector 1357  CAIN.ueD2DTx[19].tcp  tcpRcvQueueBytes  ETV
vector 1344  CAIN.ueD2DTx[19].tcp  "advertised window"  ETV
vector 1343  CAIN.ueD2DTx[19].tcp  "receive window"  ETV
vector 1346  CAIN.ueD2DTx[19].tcp  "sent ack"  ETV
vector 813  CAIN.ueD2DTx[19].nic.pdcpRrc  receivedPacketFromUpperLayer:vector(packetBytes)  ETV
attr interpolationmode  none
attr source  receivedPacketFromUpperLayer
vector 816  CAIN.ueD2DTx[19].nic.pdcpRrc  sentPacketToLowerLayer:vector(packetBytes)  ETV
attr interpolationmode  none
attr source  sentPacketToLowerLayer
vector 817  CAIN.ueD2DTx[19].nic.mac  receivedPacketFromUpperLayer:vector(packetBytes)  ETV
attr interpolationmode  none
attr source  receivedPacketFromUpperLayer
vector 1381  CAIN.ueD2DTx[12].tcp  tcpRcvQueueBytes  ETV
vector 1368  CAIN.ueD2DTx[12].tcp  "advertised window"  ETV
vector 1367  CAIN.ueD2DTx[12].tcp  "receive window"  ETV
vector 1370  CAIN.ueD2DTx[12].tcp  "sent ack"  ETV
vector 589  CAIN.ueD2DTx[12].nic.pdcpRrc  receivedPacketFromUpperLayer:vector(packetBytes)  ETV
attr interpolationmode  none
attr source  receivedPacketFromUpperLayer
vector 592  CAIN.ueD2DTx[12].nic.pdcpRrc  sentPacketToLowerLayer:vector(packetBytes)  ETV
attr interpolationmode  none
attr source  sentPacketToLowerLayer
vector 593  CAIN.ueD2DTx[12].nic.mac  receivedPacketFromUpperLayer:vector(packetBytes)  ETV
attr interpolationmode  none
attr source  receivedPacketFromUpperLayer
vector 602  CAIN.ueD2DTx[12].nic.mac  CainMessageSent:vector  ETV
attr interpolationmode  none
attr title  "# of Sent CAIN message, vector"
vector 596  CAIN.ueD2DTx[12].nic.mac  sentPacketToLowerLayer:vector(packetBytes)  ETV
attr interpolationmode  none
attr source  sentPacketToLowerLayer
vector 826  CAIN.ueD2DTx[19].nic.mac  CainMessageSent:vector  ETV
attr interpolationmode  none
attr title  "# of Sent CAIN message, vector"
vector 820  CAIN.ueD2DTx[19].nic.mac  sentPacketToLowerLayer:vector(packetBytes)  ETV
attr interpolationmode  none
attr source  sentPacketToLowerLayer
vector 111  CAIN.eNodeB.nic.mac  racpkt:vector  ETV
attr interpolationmode  none
attr title  "eNB received racpkt message, vector"
vector 112  CAIN.eNodeB.nic.mac  racDistanceSignal:vector  ETV
attr interpolationmode  none
attr title  "Rac distance to enb, vector"
vector 113  CAIN.eNodeB.nic.mac  racServedDevsSignal:vector  ETV
attr interpolationmode  none
attr title  "# of devices served on rac arriavall, vector"
vector 98  CAIN.eNodeB.nic.mac  sentPacketToLowerLayer:vector(packetBytes)  ETV
attr interpolationmode  none
attr source  sentPacketToLowerLayer
vector 626  CAIN.ueD2DTx[13].nic.mac  receivedPacketFromLowerLayer:vector(packetBytes)  ETV
attr interpolationmode  none
attr source  receivedPacketFromLowerLayer
vector 786  CAIN.ueD2DTx[18].nic.mac  receivedPacketFromLowerLayer:vector(packetBytes)  ETV
attr interpolationmode  none
attr source  receivedPacketFromLowerLayer
vector 788  CAIN.ueD2DTx[18].nic.mac  sentPacketToLowerLayer:vector(packetBytes)  ETV
attr interpolationmode  none
attr source  sentPacketToLowerLayer
vector 106  CAIN.eNodeB.nic.mac  DistanceSignal:vector  ETV
attr interpolationmode  none
attr title  "Distance to enb, vector"
vector 100  CAIN.eNodeB.nic.mac  CainMessage:vector  ETV
attr interpolationmode  none
attr title  "eNB received CAIN message, vector"
vector 627  CAIN.ueD2DTx[13].nic.mac  sentPacketToUpperLayer:vector(packetBytes)  ETV
attr interpolationmode  none
attr source  sentPacketToUpperLayer
vector 792  CAIN.ueD2DTx[18].nic.mac  DropedCainMessage:vector  ETV
attr interpolationmode  none
attr title  "Droped CAIN message due to RB not available, vector"
vector 115  CAIN.eNodeB.nic.phy  averageCqiUlvect:vector  ETV
attr source  averageCqiUlvect
attr title  "Average Cqi reported in UL, vector"
attr unit  cqi
vector 108  CAIN.eNodeB.nic.mac  ServedDevs:vector  ETV
attr interpolationmode  none
attr title  "# of devices served on cain forwarding, vector"
vector 690  CAIN.ueD2DTx[15].nic.mac  receivedPacketFromLowerLayer:vector(packetBytes)  ETV
attr interpolationmode  none
attr source  receivedPacketFromLowerLayer
vector 692  CAIN.ueD2DTx[15].nic.mac  sentPacketToLowerLayer:vector(packetBytes)  ETV
attr interpolationmode  none
attr source  sentPacketToLowerLayer
vector 99  CAIN.eNodeB.nic.mac  measuredItbs:vector  ETV
attr source  measuredItbs
attr title  "TBS index, vector"
attr unit  ""
vector 1405  CAIN.ueD2DTx[11].tcp  tcpRcvQueueBytes  ETV
vector 1392  CAIN.ueD2DTx[11].tcp  "advertised window"  ETV
vector 1391  CAIN.ueD2DTx[11].tcp  "receive window"  ETV
vector 1394  CAIN.ueD2DTx[11].tcp  "sent ack"  ETV
vector 557  CAIN.ueD2DTx[11].nic.pdcpRrc  receivedPacketFromUpperLayer:vector(packetBytes)  ETV
attr interpolationmode  none
attr source  receivedPacketFromUpperLayer
vector 560  CAIN.ueD2DTx[11].nic.pdcpRrc  sentPacketToLowerLayer:vector(packetBytes)  ETV
attr interpolationmode  none
attr source  sentPacketToLowerLayer
vector 561  CAIN.ueD2DTx[11].nic.mac  receivedPacketFromUpperLayer:vector(packetBytes)  ETV
attr interpolationmode  none
attr source  receivedPacketFromUpperLayer
vector 570  CAIN.ueD2DTx[11].nic.mac  CainMessageSent:vector  ETV
attr interpolationmode  none
attr title  "# of Sent CAIN message, vector"
vector 564  CAIN.ueD2DTx[11].nic.mac  sentPacketToLowerLayer:vector(packetBytes)  ETV
attr interpolationmode  none
attr source  sentPacketToLowerLayer
vector 696  CAIN.ueD2DTx[15].nic.mac  DropedCainMessage:vector  ETV
attr interpolationmode  none
attr title  "Droped CAIN message due to RB not available, vector"
vector 1429  CAIN.ueD2DTx[7].tcp  tcpRcvQueueBytes  ETV
vector 1416  CAIN.ueD2DTx[7].tcp  "advertised window"  ETV
vector 1415  CAIN.ueD2DTx[7].tcp  "receive window"  ETV
vector 1418  CAIN.ueD2DTx[7].tcp  "sent ack"  ETV
vector 429  CAIN.ueD2DTx[7].nic.pdcpRrc  receivedPacketFromUpperLayer:vector(packetBytes)  ETV
attr interpolationmode  none
attr source  receivedPacketFromUpperLayer
vector 432  CAIN.ueD2DTx[7].nic.pdcpRrc  sentPacketToLowerLayer:vector(packetBytes)  ETV
attr interpolationmode  none
attr source  sentPacketToLowerLayer
vector 433  CAIN.ueD2DTx[7].nic.mac  receivedPacketFromUpperLayer:vector(packetBytes)  ETV
attr interpolationmode  none
attr source  receivedPacketFromUpperLayer
vector 442  CAIN.ueD2DTx[7].nic.mac  CainMessageSent:vector  ETV
attr interpolationmode  none
attr title  "# of Sent CAIN message, vector"
vector 436  CAIN.ueD2DTx[7].nic.mac  sentPacketToLowerLayer:vector(packetBytes)  ETV
attr interpolationmode  none
attr source  sentPacketToLowerLayer
vector 1453  CAIN.ueD2DTx[6].tcp  tcpRcvQueueBytes  ETV
vector 1440  CAIN.ueD2DTx[6].tcp  "advertised window"  ETV
vector 1439  CAIN.ueD2DTx[6].tcp  "receive window"  ETV
vector 1442  CAIN.ueD2DTx[6].tcp  "sent ack"  ETV
vector 397  CAIN.ueD2DTx[6].nic.pdcpRrc  receivedPacketFromUpperLayer:vector(packetBytes)  ETV
attr interpolationmode  none
attr source  receivedPacketFromUpperLayer
vector 400  CAIN.ueD2DTx[6].nic.pdcpRrc  sentPacketToLowerLayer:vector(packetBytes)  ETV
attr interpolationmode  none
attr source  sentPacketToLowerLayer
vector 401  CAIN.ueD2DTx[6].nic.mac  receivedPacketFromUpperLayer:vector(packetBytes)  ETV
attr interpolationmode  none
attr source  receivedPacketFromUpperLayer
vector 410  CAIN.ueD2DTx[6].nic.mac  CainMessageSent:vector  ETV
attr interpolationmode  none
attr title  "# of Sent CAIN message, vector"
vector 404  CAIN.ueD2DTx[6].nic.mac  sentPacketToLowerLayer:vector(packetBytes)  ETV
attr interpolationmode  none
attr source  sentPacketToLowerLayer
vector 97  CAIN.eNodeB.nic.mac  sentPacketToUpperLayer:vector(packetBytes)  ETV
attr interpolationmode  none
attr source  sentPacketToUpperLayer
vector 92  CAIN.eNodeB.nic.pdcpRrc  receivedPacketFromLowerLayer:vector(packetBytes)  ETV
attr interpolationmode  none
attr source  receivedPacketFromLowerLayer
vector 93  CAIN.eNodeB.nic.pdcpRrc  sentPacketToUpperLayer:vector(packetBytes)  ETV
attr interpolationmode  none
attr source  sentPacketToUpperLayer
vector 91  CAIN.eNodeB.nic.pdcpRrc  receivedPacketFromUpperLayer:vector(packetBytes)  ETV
attr interpolationmode  none
attr source  receivedPacketFromUpperLayer
vector 94  CAIN.eNodeB.nic.pdcpRrc  sentPacketToLowerLayer:vector(packetBytes)  ETV
attr interpolationmode  none
attr source  sentPacketToLowerLayer
vector 95  CAIN.eNodeB.nic.mac  receivedPacketFromUpperLayer:vector(packetBytes)  ETV
attr interpolationmode  none
attr source  receivedPacketFromUpperLayer
vector 228  CAIN.ueD2DTx[0].nic.phy  averageCqiDlvect:vector  ETV
attr source  averageCqiDlvect
attr title  "Average Cqi reported in DL, vector"
attr unit  cqi
vector 210  CAIN.ueD2DTx[0].nic.mac  receivedPacketFromLowerLayer:vector(packetBytes)  ETV
attr interpolationmode  none
attr source  receivedPacketFromLowerLayer
vector 212  CAIN.ueD2DTx[0].nic.mac  sentPacketToLowerLayer:vector(packetBytes)  ETV
attr interpolationmode  none
attr source  sentPacketToLowerLayer
vector 211  CAIN.ueD2DTx[0].nic.mac  sentPacketToUpperLayer:vector(packetBytes)  ETV
attr interpolationmode  none
attr source  sentPacketToUpperLayer
vector 206  CAIN.ueD2DTx[0].nic.pdcpRrc  receivedPacketFromLowerLayer:vector(packetBytes)  ETV
attr interpolationmode  none
attr source  receivedPacketFromLowerLayer
vector 207  CAIN.ueD2DTx[0].nic.pdcpRrc  sentPacketToUpperLayer:vector(packetBytes)  ETV
attr interpolationmode  none
attr source  sentPacketToUpperLayer
vector 1477  CAIN.ueD2DTx[2].tcp  tcpRcvQueueBytes  ETV
vector 1464  CAIN.ueD2DTx[2].tcp  "advertised window"  ETV
vector 1463  CAIN.ueD2DTx[2].tcp  "receive window"  ETV
vector 1466  CAIN.ueD2DTx[2].tcp  "sent ack"  ETV
vector 269  CAIN.ueD2DTx[2].nic.pdcpRrc  receivedPacketFromUpperLayer:vector(packetBytes)  ETV
attr interpolationmode  none
attr source  receivedPacketFromUpperLayer
vector 272  CAIN.ueD2DTx[2].nic.pdcpRrc  sentPacketToLowerLayer:vector(packetBytes)  ETV
attr interpolationmode  none
attr source  sentPacketToLowerLayer
vector 273  CAIN.ueD2DTx[2].nic.mac  receivedPacketFromUpperLayer:vector(packetBytes)  ETV
attr interpolationmode  none
attr source  receivedPacketFromUpperLayer
vector 282  CAIN.ueD2DTx[2].nic.mac  CainMessageSent:vector  ETV
attr interpolationmode  none
attr title  "# of Sent CAIN message, vector"
vector 276  CAIN.ueD2DTx[2].nic.mac  sentPacketToLowerLayer:vector(packetBytes)  ETV
attr interpolationmode  none
attr source  sentPacketToLowerLayer
vector 1501  CAIN.ueD2DTx[10].tcp  tcpRcvQueueBytes  ETV
vector 1488  CAIN.ueD2DTx[10].tcp  "advertised window"  ETV
vector 1487  CAIN.ueD2DTx[10].tcp  "receive window"  ETV
vector 1490  CAIN.ueD2DTx[10].tcp  "sent ack"  ETV
vector 525  CAIN.ueD2DTx[10].nic.pdcpRrc  receivedPacketFromUpperLayer:vector(packetBytes)  ETV
attr interpolationmode  none
attr source  receivedPacketFromUpperLayer
vector 528  CAIN.ueD2DTx[10].nic.pdcpRrc  sentPacketToLowerLayer:vector(packetBytes)  ETV
attr interpolationmode  none
attr source  sentPacketToLowerLayer
vector 529  CAIN.ueD2DTx[10].nic.mac  receivedPacketFromUpperLayer:vector(packetBytes)  ETV
attr interpolationmode  none
attr source  receivedPacketFromUpperLayer
vector 1525  CAIN.ueD2DTx[14].tcp  tcpRcvQueueBytes  ETV
vector 1512  CAIN.ueD2DTx[14].tcp  "advertised window"  ETV
vector 1511  CAIN.ueD2DTx[14].tcp  "receive window"  ETV
vector 1514  CAIN.ueD2DTx[14].tcp  "sent ack"  ETV
vector 653  CAIN.ueD2DTx[14].nic.pdcpRrc  receivedPacketFromUpperLayer:vector(packetBytes)  ETV
attr interpolationmode  none
attr source  receivedPacketFromUpperLayer
vector 656  CAIN.ueD2DTx[14].nic.pdcpRrc  sentPacketToLowerLayer:vector(packetBytes)  ETV
attr interpolationmode  none
attr source  sentPacketToLowerLayer
vector 657  CAIN.ueD2DTx[14].nic.mac  receivedPacketFromUpperLayer:vector(packetBytes)  ETV
attr interpolationmode  none
attr source  receivedPacketFromUpperLayer
vector 539  CAIN.ueD2DTx[10].nic.mac  CainHopMessageSent:vector  ETV
attr interpolationmode  none
attr title  "# of Sent CAIN hop message, vector"
vector 532  CAIN.ueD2DTx[10].nic.mac  sentPacketToLowerLayer:vector(packetBytes)  ETV
attr interpolationmode  none
attr source  sentPacketToLowerLayer
vector 666  CAIN.ueD2DTx[14].nic.mac  CainMessageSent:vector  ETV
attr interpolationmode  none
attr title  "# of Sent CAIN message, vector"
vector 660  CAIN.ueD2DTx[14].nic.mac  sentPacketToLowerLayer:vector(packetBytes)  ETV
attr interpolationmode  none
attr source  sentPacketToLowerLayer
vector 754  CAIN.ueD2DTx[17].nic.mac  receivedPacketFromLowerLayer:vector(packetBytes)  ETV
attr interpolationmode  none
attr source  receivedPacketFromLowerLayer
vector 756  CAIN.ueD2DTx[17].nic.mac  sentPacketToLowerLayer:vector(packetBytes)  ETV
attr interpolationmode  none
attr source  sentPacketToLowerLayer
vector 1549  CAIN.ueD2DTx[4].tcp  tcpRcvQueueBytes  ETV
vector 1536  CAIN.ueD2DTx[4].tcp  "advertised window"  ETV
vector 1535  CAIN.ueD2DTx[4].tcp  "receive window"  ETV
vector 1538  CAIN.ueD2DTx[4].tcp  "sent ack"  ETV
vector 333  CAIN.ueD2DTx[4].nic.pdcpRrc  receivedPacketFromUpperLayer:vector(packetBytes)  ETV
attr interpolationmode  none
attr source  receivedPacketFromUpperLayer
vector 336  CAIN.ueD2DTx[4].nic.pdcpRrc  sentPacketToLowerLayer:vector(packetBytes)  ETV
attr interpolationmode  none
attr source  sentPacketToLowerLayer
vector 337  CAIN.ueD2DTx[4].nic.mac  receivedPacketFromUpperLayer:vector(packetBytes)  ETV
attr interpolationmode  none
attr source  receivedPacketFromUpperLayer
vector 347  CAIN.ueD2DTx[4].nic.mac  CainHopMessageSent:vector  ETV
attr interpolationmode  none
attr title  "# of Sent CAIN hop message, vector"
vector 340  CAIN.ueD2DTx[4].nic.mac  sentPacketToLowerLayer:vector(packetBytes)  ETV
attr interpolationmode  none
attr source  sentPacketToLowerLayer
vector 101  CAIN.eNodeB.nic.mac  CainHopMessage:vector  ETV
attr interpolationmode  none
attr title  "eNB received CAIN hop message, vector"
vector 793  CAIN.ueD2DTx[18].nic.mac  DropedHopMessage:vector  ETV
attr interpolationmode  none
attr title  "Droped Hop CAIN message due to RB not available, vector"
vector 1573  CAIN.ueD2DTx[8].tcp  tcpRcvQueueBytes  ETV
vector 1560  CAIN.ueD2DTx[8].tcp  "advertised window"  ETV
vector 1559  CAIN.ueD2DTx[8].tcp  "receive window"  ETV
vector 1562  CAIN.ueD2DTx[8].tcp  "sent ack"  ETV
vector 461  CAIN.ueD2DTx[8].nic.pdcpRrc  receivedPacketFromUpperLayer:vector(packetBytes)  ETV
attr interpolationmode  none
attr source  receivedPacketFromUpperLayer
vector 464  CAIN.ueD2DTx[8].nic.pdcpRrc  sentPacketToLowerLayer:vector(packetBytes)  ETV
attr interpolationmode  none
attr source  sentPacketToLowerLayer
vector 465  CAIN.ueD2DTx[8].nic.mac  receivedPacketFromUpperLayer:vector(packetBytes)  ETV
attr interpolationmode  none
attr source  receivedPacketFromUpperLayer
vector 475  CAIN.ueD2DTx[8].nic.mac  CainHopMessageSent:vector  ETV
attr interpolationmode  none
attr title  "# of Sent CAIN hop message, vector"
vector 468  CAIN.ueD2DTx[8].nic.mac  sentPacketToLowerLayer:vector(packetBytes)  ETV
attr interpolationmode  none
attr source  sentPacketToLowerLayer
vector 1597  CAIN.ueD2DTx[9].tcp  tcpRcvQueueBytes  ETV
vector 1584  CAIN.ueD2DTx[9].tcp  "advertised window"  ETV
vector 1583  CAIN.ueD2DTx[9].tcp  "receive window"  ETV
vector 1586  CAIN.ueD2DTx[9].tcp  "sent ack"  ETV
vector 493  CAIN.ueD2DTx[9].nic.pdcpRrc  receivedPacketFromUpperLayer:vector(packetBytes)  ETV
attr interpolationmode  none
attr source  receivedPacketFromUpperLayer
vector 496  CAIN.ueD2DTx[9].nic.pdcpRrc  sentPacketToLowerLayer:vector(packetBytes)  ETV
attr interpolationmode  none
attr source  sentPacketToLowerLayer
vector 497  CAIN.ueD2DTx[9].nic.mac  receivedPacketFromUpperLayer:vector(packetBytes)  ETV
attr interpolationmode  none
attr source  receivedPacketFromUpperLayer
vector 507  CAIN.ueD2DTx[9].nic.mac  CainHopMessageSent:vector  ETV
attr interpolationmode  none
attr title  "# of Sent CAIN hop message, vector"
vector 500  CAIN.ueD2DTx[9].nic.mac  sentPacketToLowerLayer:vector(packetBytes)  ETV
attr interpolationmode  none
attr source  sentPacketToLowerLayer
vector 1621  CAIN.ueD2DTx[15].tcp  tcpRcvQueueBytes  ETV
vector 1608  CAIN.ueD2DTx[15].tcp  "advertised window"  ETV
vector 1607  CAIN.ueD2DTx[15].tcp  "receive window"  ETV
vector 1610  CAIN.ueD2DTx[15].tcp  "sent ack"  ETV
vector 685  CAIN.ueD2DTx[15].nic.pdcpRrc  receivedPacketFromUpperLayer:vector(packetBytes)  ETV
attr interpolationmode  none
attr source  receivedPacketFromUpperLayer
vector 688  CAIN.ueD2DTx[15].nic.pdcpRrc  sentPacketToLowerLayer:vector(packetBytes)  ETV
attr interpolationmode  none
attr source  sentPacketToLowerLayer
vector 689  CAIN.ueD2DTx[15].nic.mac  receivedPacketFromUpperLayer:vector(packetBytes)  ETV
attr interpolationmode  none
attr source  receivedPacketFromUpperLayer
vector 1645  CAIN.ueD2DTx[17].tcp  tcpRcvQueueBytes  ETV
vector 1632  CAIN.ueD2DTx[17].tcp  "advertised window"  ETV
vector 1631  CAIN.ueD2DTx[17].tcp  "receive window"  ETV
vector 1634  CAIN.ueD2DTx[17].tcp  "sent ack"  ETV
vector 749  CAIN.ueD2DTx[17].nic.pdcpRrc  receivedPacketFromUpperLayer:vector(packetBytes)  ETV
attr interpolationmode  none
attr source  receivedPacketFromUpperLayer
vector 752  CAIN.ueD2DTx[17].nic.pdcpRrc  sentPacketToLowerLayer:vector(packetBytes)  ETV
attr interpolationmode  none
attr source  sentPacketToLowerLayer
vector 753  CAIN.ueD2DTx[17].nic.mac  receivedPacketFromUpperLayer:vector(packetBytes)  ETV
attr interpolationmode  none
attr source  receivedPacketFromUpperLayer
vector 1669  CAIN.ueD2DTx[0].tcp  tcpRcvQueueBytes  ETV
vector 1656  CAIN.ueD2DTx[0].tcp  "advertised window"  ETV
vector 1655  CAIN.ueD2DTx[0].tcp  "receive window"  ETV
vector 1658  CAIN.ueD2DTx[0].tcp  "sent ack"  ETV
vector 205  CAIN.ueD2DTx[0].nic.pdcpRrc  receivedPacketFromUpperLayer:vector(packetBytes)  ETV
attr interpolationmode  none
attr source  receivedPacketFromUpperLayer
vector 208  CAIN.ueD2DTx[0].nic.pdcpRrc  sentPacketToLowerLayer:vector(packetBytes)  ETV
attr interpolationmode  none
attr source  sentPacketToLowerLayer
vector 209  CAIN.ueD2DTx[0].nic.mac  receivedPacketFromUpperLayer:vector(packetBytes)  ETV
attr interpolationmode  none
attr source  receivedPacketFromUpperLayer
vector 218  CAIN.ueD2DTx[0].nic.mac  CainMessageSent:vector  ETV
attr interpolationmode  none
attr title  "# of Sent CAIN message, vector"
vector 762  CAIN.ueD2DTx[17].nic.mac  CainMessageSent:vector  ETV
attr interpolationmode  none
attr title  "# of Sent CAIN message, vector"
vector 691  CAIN.ueD2DTx[15].nic.mac  sentPacketToUpperLayer:vector(packetBytes)  ETV
attr interpolationmode  none
attr source  sentPacketToUpperLayer
vector 1301  CAIN.eNodeB1.sctp  "SendQueue of Association 5"  ETV
vector 1065  CAIN.eNodeB1.sctp  "TSN Sent 5:10.0.5.1"  ETV
vector 1072  CAIN.eNodeB1.sctp  "Outstanding Bytes 5:10.0.5.1"  ETV
vector 870  CAIN.eNodeB1.sctp  "Outstanding Bytes 4:Total"  ETV
vector 1071  CAIN.eNodeB1.sctp  "Queued Sent Bytes 5:10.0.5.1"  ETV
vector 869  CAIN.eNodeB1.sctp  "Queued Sent Bytes 4:Total"  ETV
vector 914  CAIN.eNodeB.sctp  "TSN Received 1:10.0.5.2"  ETV
vector 890  CAIN.eNodeB.sctp  "Queued Received Bytes 1:Total"  ETV
vector 886  CAIN.eNodeB.sctp  "Advertised Receiver Window 1"  ETV
vector 895  CAIN.eNodeB.sctp  "Number of Total Gap Blocks Stored 1"  ETV
vector 896  CAIN.eNodeB.sctp  "Number of Revokable Gap Blocks Stored 1"  ETV
vector 897  CAIN.eNodeB.sctp  "Number of Non-Revokable Gap Blocks Stored 1"  ETV
vector 898  CAIN.eNodeB.sctp  "Number of Duplicate TSNs Stored 1"  ETV
vector 902  CAIN.eNodeB.sctp  "Length of SACK Sent 1"  ETV
vector 899  CAIN.eNodeB.sctp  "Number of Revokable Gap Blocks Sent 1"  ETV
vector 900  CAIN.eNodeB.sctp  "Number of Non-Revokable Gap Blocks Sent 1"  ETV
vector 901  CAIN.eNodeB.sctp  "Number of Duplicate TSNs Sent 1"  ETV
vector 906  CAIN.eNodeB.sctp  "End to End Delay of Association 1"  ETV
vector 141  CAIN.eNodeB.x2App[0].client  rcvdPk:vector(packetBytes)  ETV
attr interpolationmode  none
attr source  rcvdPk
attr title  "packets received, vector(packetBytes)"
vector 1300  CAIN.eNodeB1.sctp  "Number of Gap Blocks in Last SACK of Association 5"  ETV
vector 871  CAIN.eNodeB1.sctp  "Number of Revokable Gap Blocks in SACK 4"  ETV
vector 872  CAIN.eNodeB1.sctp  "Number of Non-Revokable Gap Blocks in SACK 4"  ETV
vector 1082  CAIN.eNodeB1.sctp  "TSN Acked CumAck 5:10.0.5.1"  ETV
vector 1048  CAIN.eNodeB1.sctp  "Number of Gap Acked Chunks in Last SACK 5:10.0.2.2"  ETV
vector 1049  CAIN.eNodeB1.sctp  "Number of Non-Revokable Gap Acked Chunks in Last SACK 5:10.0.2.2"  ETV
vector 1050  CAIN.eNodeB1.sctp  "Number of Gap Missed Chunks in Last SACK 5:10.0.2.2"  ETV
vector 1021  CAIN.eNodeB1.sctp  "Number of Gap Acked Chunks in Last SACK 5:10.0.4.1"  ETV
vector 1022  CAIN.eNodeB1.sctp  "Number of Non-Revokable Gap Acked Chunks in Last SACK 5:10.0.4.1"  ETV
vector 1023  CAIN.eNodeB1.sctp  "Number of Gap Missed Chunks in Last SACK 5:10.0.4.1"  ETV
vector 1075  CAIN.eNodeB1.sctp  "Number of Gap Acked Chunks in Last SACK 5:10.0.5.1"  ETV
vector 1076  CAIN.eNodeB1.sctp  "Number of Non-Revokable Gap Acked Chunks in Last SACK 5:10.0.5.1"  ETV
vector 1077  CAIN.eNodeB1.sctp  "Number of Gap Missed Chunks in Last SACK 5:10.0.5.1"  ETV
vector 881  CAIN.eNodeB1.sctp  "Arwnd in Last SACK 4"  ETV
vector 1084  CAIN.eNodeB1.sctp  "TSN PseudoCumAck 5:10.0.5.1"  ETV
vector 1085  CAIN.eNodeB1.sctp  "TSN RTXPseudoCumAck 5:10.0.5.1"  ETV
vector 1078  CAIN.eNodeB1.sctp  "Partial Bytes Acked 5:10.0.5.1"  ETV
vector 1693  CAIN.ueD2DTx[1].tcp  tcpRcvQueueBytes  ETV
vector 1680  CAIN.ueD2DTx[1].tcp  "advertised window"  ETV
vector 1679  CAIN.ueD2DTx[1].tcp  "receive window"  ETV
vector 1682  CAIN.ueD2DTx[1].tcp  "sent ack"  ETV
vector 237  CAIN.ueD2DTx[1].nic.pdcpRrc  receivedPacketFromUpperLayer:vector(packetBytes)  ETV
attr interpolationmode  none
attr source  receivedPacketFromUpperLayer
vector 240  CAIN.ueD2DTx[1].nic.pdcpRrc  sentPacketToLowerLayer:vector(packetBytes)  ETV
attr interpolationmode  none
attr source  sentPacketToLowerLayer
vector 241  CAIN.ueD2DTx[1].nic.mac  receivedPacketFromUpperLayer:vector(packetBytes)  ETV
attr interpolationmode  none
attr source  receivedPacketFromUpperLayer
vector 250  CAIN.ueD2DTx[1].nic.mac  CainMessageSent:vector  ETV
attr interpolationmode  none
attr title  "# of Sent CAIN message, vector"
vector 244  CAIN.ueD2DTx[1].nic.mac  sentPacketToLowerLayer:vector(packetBytes)  ETV
attr interpolationmode  none
attr source  sentPacketToLowerLayer
vector 1717  CAIN.ueD2DTx[5].tcp  tcpRcvQueueBytes  ETV
vector 1704  CAIN.ueD2DTx[5].tcp  "advertised window"  ETV
vector 1703  CAIN.ueD2DTx[5].tcp  "receive window"  ETV
vector 1706  CAIN.ueD2DTx[5].tcp  "sent ack"  ETV
vector 365  CAIN.ueD2DTx[5].nic.pdcpRrc  receivedPacketFromUpperLayer:vector(packetBytes)  ETV
attr interpolationmode  none
attr source  receivedPacketFromUpperLayer
vector 368  CAIN.ueD2DTx[5].nic.pdcpRrc  sentPacketToLowerLayer:vector(packetBytes)  ETV
attr interpolationmode  none
attr source  sentPacketToLowerLayer
vector 369  CAIN.ueD2DTx[5].nic.mac  receivedPacketFromUpperLayer:vector(packetBytes)  ETV
attr interpolationmode  none
attr source  receivedPacketFromUpperLayer
vector 379  CAIN.ueD2DTx[5].nic.mac  CainHopMessageSent:vector  ETV
attr interpolationmode  none
attr title  "# of Sent CAIN hop message, vector"
vector 372  CAIN.ueD2DTx[5].nic.mac  sentPacketToLowerLayer:vector(packetBytes)  ETV
attr interpolationmode  none
attr source  sentPacketToLowerLayer
vector 154  CAIN.eNodeB1.nic.mac  receivedPacketFromLowerLayer:vector(packetBytes)  ETV
attr interpolationmode  none
attr source  receivedPacketFromLowerLayer
vector 1741  CAIN.ueD2DTx[3].tcp  tcpRcvQueueBytes  ETV
vector 1728  CAIN.ueD2DTx[3].tcp  "advertised window"  ETV
vector 1727  CAIN.ueD2DTx[3].tcp  "receive window"  ETV
vector 1730  CAIN.ueD2DTx[3].tcp  "sent ack"  ETV
vector 301  CAIN.ueD2DTx[3].nic.pdcpRrc  receivedPacketFromUpperLayer:vector(packetBytes)  ETV
attr interpolationmode  none
attr source  receivedPacketFromUpperLayer
vector 304  CAIN.ueD2DTx[3].nic.pdcpRrc  sentPacketToLowerLayer:vector(packetBytes)  ETV
attr interpolationmode  none
attr source  sentPacketToLowerLayer
vector 305  CAIN.ueD2DTx[3].nic.mac  receivedPacketFromUpperLayer:vector(packetBytes)  ETV
attr interpolationmode  none
attr source  receivedPacketFromUpperLayer
vector 314  CAIN.ueD2DTx[3].nic.mac  CainMessageSent:vector  ETV
attr interpolationmode  none
attr title  "# of Sent CAIN message, vector"
vector 308  CAIN.ueD2DTx[3].nic.mac  sentPacketToLowerLayer:vector(packetBytes)  ETV
attr interpolationmode  none
attr source  sentPacketToLowerLayer
vector 1765  CAIN.ueD2DTx[16].tcp  tcpRcvQueueBytes  ETV
vector 1752  CAIN.ueD2DTx[16].tcp  "advertised window"  ETV
vector 1751  CAIN.ueD2DTx[16].tcp  "receive window"  ETV
vector 1754  CAIN.ueD2DTx[16].tcp  "sent ack"  ETV
vector 717  CAIN.ueD2DTx[16].nic.pdcpRrc  receivedPacketFromUpperLayer:vector(packetBytes)  ETV
attr interpolationmode  none
attr source  receivedPacketFromUpperLayer
vector 720  CAIN.ueD2DTx[16].nic.pdcpRrc  sentPacketToLowerLayer:vector(packetBytes)  ETV
attr interpolationmode  none
attr source  sentPacketToLowerLayer
vector 721  CAIN.ueD2DTx[16].nic.mac  receivedPacketFromUpperLayer:vector(packetBytes)  ETV
attr interpolationmode  none
attr source  receivedPacketFromUpperLayer
vector 730  CAIN.ueD2DTx[16].nic.mac  CainMessageSent:vector  ETV
attr interpolationmode  none
attr title  "# of Sent CAIN message, vector"
vector 724  CAIN.ueD2DTx[16].nic.mac  sentPacketToLowerLayer:vector(packetBytes)  ETV
attr interpolationmode  none
attr source  sentPacketToLowerLayer
vector 1789  CAIN.ueD2DTx[18].tcp  tcpRcvQueueBytes  ETV
vector 1776  CAIN.ueD2DTx[18].tcp  "advertised window"  ETV
vector 1775  CAIN.ueD2DTx[18].tcp  "receive window"  ETV
vector 1778  CAIN.ueD2DTx[18].tcp  "sent ack"  ETV
vector 781  CAIN.ueD2DTx[18].nic.pdcpRrc  receivedPacketFromUpperLayer:vector(packetBytes)  ETV
attr interpolationmode  none
attr source  receivedPacketFromUpperLayer
vector 784  CAIN.ueD2DTx[18].nic.pdcpRrc  sentPacketToLowerLayer:vector(packetBytes)  ETV
attr interpolationmode  none
attr source  sentPacketToLowerLayer
vector 785  CAIN.ueD2DTx[18].nic.mac  receivedPacketFromUpperLayer:vector(packetBytes)  ETV
attr interpolationmode  none
attr source  receivedPacketFromUpperLayer
vector 787  CAIN.ueD2DTx[18].nic.mac  sentPacketToUpperLayer:vector(packetBytes)  ETV
attr interpolationmode  none
attr source  sentPacketToUpperLayer
vector 109  CAIN.eNodeB.nic.mac  ServedHopDevs:vector  ETV
attr interpolationmode  none
attr title  "# of devices served on hop forwarding, vector"
vector 763  CAIN.ueD2DTx[17].nic.mac  CainHopMessageSent:vector  ETV
attr interpolationmode  none
attr title  "# of Sent CAIN hop message, vector"
vector 562  CAIN.ueD2DTx[11].nic.mac  receivedPacketFromLowerLayer:vector(packetBytes)  ETV
attr interpolationmode  none
attr source  receivedPacketFromLowerLayer
vector 827  CAIN.ueD2DTx[19].nic.mac  CainHopMessageSent:vector  ETV
attr interpolationmode  none
attr title  "# of Sent CAIN hop message, vector"
1108	49709 24 150 150 0.0000001228 0.0000001228 1 0 0 0 0
1219	49733 28 235 235 0.0000006304 0.0000006304 1 65535 65535 65535 4294836225
1220	49761 27 235 235 0.0000006304 0.0000006304 1 8940 8940 8940 79923600
1221	49788 29 235 235 0.0000006304 0.0000006304 1 0.3725 0.3725 0.3725 0.13875625
1217	49817 24 235 235 0.0000006304 0.0000006304 1 3 3 3 9
1224	49841 24 235 235 0.0000006304 0.0000006304 1 1 1 1 1
1236	49865 24 163 163 0.0000003096 0.0000003096 1 0 0 0 0
1192	49889 28 235 235 0.0000006304 0.0000006304 1 65535 65535 65535 4294836225
1193	49917 27 235 235 0.0000006304 0.0000006304 1 8940 8940 8940 79923600
1194	49944 29 235 235 0.0000006304 0.0000006304 1 0.3725 0.3725 0.3725 0.13875625
1190	49973 24 235 235 0.0000006304 0.0000006304 1 3 3 3 9
1197	49997 24 235 235 0.0000006304 0.0000006304 1 1 1 1 1
1209	50021 24 163 163 0.0000003096 0.0000003096 1 0 0 0 0
910	50045 27 235 235 0.0000006304 0.0000006304 1 65535 65535 65535 4294836225
911	50072 26 235 235 0.0000006304 0.0000006304 1 8940 8940 8940 79923600
912	50098 28 235 235 0.0000006304 0.0000006304 1 0.3725 0.3725 0.3725 0.13875625
908	50126 46 235 302 0.0000006304 0.0000008564 2 1 3 4 10
909	50172 30 302 302 0.0000008564 0.0000008564 1 2.26e-07 2.26e-07 2.26e-07 5.1076e-14
914	50202 753 3634 18962 0.0570000972 0.2570008636 27 2000 2026 54351 109410201
917	50955 44 207 221 0.000000552 0.000000596 2 1 2 3 5
916	50999 44 207 221 0.000000552 0.000000596 2 1 2 3 5
918	51043 46 302 308 0.0000008564 0.0000009004 2 1 2 3 5
927	51089 12 131 131 0 0 1 0 0 0 0
886	51101 86 3634 34132 0.0570000972 0.4570008636 3 65533 65535 196603 12884246539
890	51187 747 3634 34132 0.0570000972 0.4570008636 30 0 48 56 2328
895	51934 74 3634 34132 0.0570000972 0.4570008636 3 0 0 0 0
896	52008 74 3634 34132 0.0570000972 0.4570008636 3 0 0 0 0
897	52082 74 3634 34132 0.0570000972 0.4570008636 3 0 0 0 0
898	52156 74 3634 34132 0.0570000972 0.4570008636 3 0 0 0 0
899	52230 74 3634 34132 0.0570000972 0.4570008636 3 0 0 0 0
900	52304 74 3634 34132 0.0570000972 0.4570008636 3 0 0 0 0
901	52378 74 3634 34132 0.0570000972 0.4570008636 3 0 0 0 0
902	52452 77 3634 34132 0.0570000972 0.4570008636 3 16 16 48 768
904	52529 27 163 163 0.0000003096 0.0000003096 1 65535 65535 65535 4294836225
906	52556 887 3637 18987 0.0570000972 0.2570008636 27 9.72e-08 4.652e-07 1.14884e-05 5.22894128e-12
907	53443 12 131 131 0 0 1 0 0 0 0
1138	53455 27 178 178 0.000000458 0.000000458 1 65535 65535 65535 4294836225
1139	53482 26 178 178 0.000000458 0.000000458 1 8940 8940 8940 79923600
1140	53508 28 178 178 0.000000458 0.000000458 1 0.3725 0.3725 0.3725 0.13875625
1136	53536 23 178 178 0.000000458 0.000000458 1 3 3 3 9
1143	53559 23 178 178 0.000000458 0.000000458 1 1 1 1 1
1151	53582 76 624 30375 0.0070001912 0.4070009576 3 0 0 0 0
1152	53658 76 624 30375 0.0070001912 0.4070009576 3 0 0 0 0
1153	53734 76 624 30375 0.0070001912 0.4070009576 3 0 0 0 0
1155	53810 24 150 150 0.0000001228 0.0000001228 1 0 0 0 0
1111	53834 27 178 178 0.000000458 0.000000458 1 65535 65535 65535 4294836225
1112	53861 26 178 178 0.000000458 0.000000458 1 8940 8940 8940 79923600
1113	53887 28 178 178 0.000000458 0.000000458 1 0.3725 0.3725 0.3725 0.13875625
1109	53915 23 178 178 0.000000458 0.000000458 1 3 3 3 9
1116	53938 23 178 178 0.000000458 0.000000458 1 1 1 1 1
1124	53961 76 624 30375 0.0070001912 0.4070009576 3 0 0 0 0
1125	54037 76 624 30375 0.0070001912 0.4070009576 3 0 0 0 0
1126	54113 76 624 30375 0.0070001912 0.4070009576 3 0 0 0 0
1128	54189 24 150 150 0.0000001228 0.0000001228 1 0 0 0 0
1165	54213 57 178 90525 0.000000458 1.2070003984 2 65535 65535 131070 8589672450
1166	54270 55 178 90525 0.000000458 1.2070003984 2 8940 8940 17880 159847200
1167	54325 58 178 90525 0.000000458 1.2070003984 2 0.3725 23.84 24.2125 568.48435625
1163	54383 123 178 30375 0.000000458 0.4070009576 5 1 3 7 13
1164	54506 138 255 30375 0.0000006744 0.4070009576 4 1.912e-07 0.2000005592 0.400001174 0.080000306560439
1168	54644 770 579 15104 0.007 0.2070003984 27 2000 2026 54351 109410201
1172	55414 48 273 287 0.0000007624 0.0000008064 2 1 2 3 5
1171	55462 48 273 287 0.0000007624 0.0000008064 2 1 2 3 5
1173	55510 48 255 265 0.0000006744 0.0000007184 2 1 2 3 5
1174	55558 1428 579 30375 0.007 0.4070009576 54 0 48 1162 36924
1175	56986 1428 579 30375 0.007 0.4070009576 54 0 48 1162 36924
1178	58414 76 624 30375 0.0070001912 0.4070009576 3 0 0 0 0
1179	58490 76 624 30375 0.0070001912 0.4070009576 3 0 0 0 0
1180	58566 76 624 30375 0.0070001912 0.4070009576 3 0 0 0 0
1181	58642 76 624 30375 0.0070001912 0.4070009576 3 0 0 0 0
1182	58718 24 150 150 0.0000001228 0.0000001228 1 0 0 0 0
1185	58742 85 624 30375 0.0070001912 0.4070009576 3 2000 2026 6028 12112680
1187	58827 76 624 30375 0.0070001912 0.4070009576 3 0 0 0 0
1188	58903 76 624 30375 0.0070001912 0.4070009576 3 0 0 0 0
1304	58979 76 624 30375 0.0070001912 0.4070009576 3 0 0 0 0
1305	59055 1198 579 15104 0.007 0.2070003984 54 0 24 581 9231
848	60253 1374 579 30375 0.007 0.4070009576 54 0 48 1162 36924
847	61627 1374 579 30375 0.007 0.4070009576 54 0 48 1162 36924
849	63001 73 624 30375 0.0070001912 0.4070009576 3 0 0 0 0
850	63074 73 624 30375 0.0070001912 0.4070009576 3 0 0 0 0
859	63147 85 624 30375 0.0070001912 0.4070009576 3 65533 65535 196603 12884246539
860	63232 112 150 30375 0.0000001228 0.4070009576 4 65533 65535 262138 17179082764
863	63344 12 123 123 0 0 1 0 0 0 0
1005	63356 24 149 149 0.0000001228 0.0000001228 1 0 0 0 0
1273	63380 28 236 236 0.0000006304 0.0000006304 1 65535 65535 65535 4294836225
1274	63408 27 236 236 0.0000006304 0.0000006304 1 8940 8940 8940 79923600
1275	63435 29 236 236 0.0000006304 0.0000006304 1 0.3725 0.3725 0.3725 0.13875625
1271	63464 24 236 236 0.0000006304 0.0000006304 1 3 3 3 9
1278	63488 24 236 236 0.0000006304 0.0000006304 1 1 1 1 1
1290	63512 24 164 164 0.0000003096 0.0000003096 1 0 0 0 0
1246	63536 28 236 236 0.0000006304 0.0000006304 1 65535 65535 65535 4294836225
1247	63564 27 236 236 0.0000006304 0.0000006304 1 8940 8940 8940 79923600
1248	63591 29 236 236 0.0000006304 0.0000006304 1 0.3725 0.3725 0.3725 0.13875625
1244	63620 24 236 236 0.0000006304 0.0000006304 1 3 3 3 9
1251	63644 24 236 236 0.0000006304 0.0000006304 1 1 1 1 1
1263	63668 24 164 164 0.0000003096 0.0000003096 1 0 0 0 0
959	63692 27 236 236 0.0000006304 0.0000006304 1 65535 65535 65535 4294836225
960	63719 26 236 236 0.0000006304 0.0000006304 1 8940 8940 8940 79923600
961	63745 28 236 236 0.0000006304 0.0000006304 1 0.3725 0.3725 0.3725 0.13875625
957	63773 46 236 301 0.0000006304 0.0000008564 2 1 3 4 10
958	63819 30 301 301 0.0000008564 0.0000008564 1 2.26e-07 2.26e-07 2.26e-07 5.1076e-14
963	63849 750 612 15111 0.0070000972 0.2070008636 27 2000 2026 54351 109410201
966	64599 44 208 222 0.000000552 0.000000596 2 1 2 3 5
965	64643 44 208 222 0.000000552 0.000000596 2 1 2 3 5
967	64687 46 301 307 0.0000008564 0.0000009004 2 1 2 3 5
976	64733 12 132 132 0 0 1 0 0 0 0
935	64745 85 612 30368 0.0070000972 0.4070008636 3 65533 65535 196603 12884246539
939	64830 743 612 30368 0.0070000972 0.4070008636 30 0 48 56 2328
944	65573 73 612 30368 0.0070000972 0.4070008636 3 0 0 0 0
945	65646 73 612 30368 0.0070000972 0.4070008636 3 0 0 0 0
946	65719 73 612 30368 0.0070000972 0.4070008636 3 0 0 0 0
947	65792 73 612 30368 0.0070000972 0.4070008636 3 0 0 0 0
948	65865 73 612 30368 0.0070000972 0.4070008636 3 0 0 0 0
949	65938 73 612 30368 0.0070000972 0.4070008636 3 0 0 0 0
950	66011 73 612 30368 0.0070000972 0.4070008636 3 0 0 0 0
951	66084 76 612 30368 0.0070000972 0.4070008636 3 16 16 48 768
953	66160 27 164 164 0.0000003096 0.0000003096 1 65535 65535 65535 4294836225
955	66187 884 615 15136 0.0070000972 0.2070008636 27 9.72e-08 4.652e-07 1.14884e-05 5.22894128e-12
956	67071 12 132 132 0 0 1 0 0 0 0
1035	67083 27 177 177 0.000000458 0.000000458 1 65535 65535 65535 4294836225
1036	67110 26 177 177 0.000000458 0.000000458 1 8940 8940 8940 79923600
1037	67136 28 177 177 0.000000458 0.000000458 1 0.3725 0.3725 0.3725 0.13875625
1033	67164 23 177 177 0.000000458 0.000000458 1 3 3 3 9
1040	67187 23 177 177 0.000000458 0.000000458 1 1 1 1 1
1048	67210 77 3646 34139 0.0570001912 0.4570009576 3 0 0 0 0
1049	67287 77 3646 34139 0.0570001912 0.4570009576 3 0 0 0 0
1050	67364 77 3646 34139 0.0570001912 0.4570009576 3 0 0 0 0
1052	67441 24 149 149 0.0000001228 0.0000001228 1 0 0 0 0
1008	67465 27 177 177 0.000000458 0.000000458 1 65535 65535 65535 4294836225
1009	67492 26 177 177 0.000000458 0.000000458 1 8940 8940 8940 79923600
1010	67518 28 177 177 0.000000458 0.000000458 1 0.3725 0.3725 0.3725 0.13875625
1006	67546 23 177 177 0.000000458 0.000000458 1 3 3 3 9
1013	67569 23 177 177 0.000000458 0.000000458 1 1 1 1 1
1021	67592 77 3646 34139 0.0570001912 0.4570009576 3 0 0 0 0
1022	67669 77 3646 34139 0.0570001912 0.4570009576 3 0 0 0 0
1023	67746 77 3646 34139 0.0570001912 0.4570009576 3 0 0 0 0
1025	67823 24 149 149 0.0000001228 0.0000001228 1 0 0 0 0
1062	67847 57 177 94299 0.000000458 1.2570003984 2 65535 65535 131070 8589672450
1063	67904 55 177 94299 0.000000458 1.2570003984 2 8940 8940 17880 159847200
1064	67959 58 177 94299 0.000000458 1.2570003984 2 0.3725 23.84 24.2125 568.48435625
1060	68017 124 177 34139 0.000000458 0.4570009576 5 1 3 7 13
1061	68141 139 256 34139 0.0000006744 0.4570009576 4 1.912e-07 0.2000005592 0.400001174 0.080000306560439
1065	68280 773 3569 18955 0.057 0.2570003984 27 2000 2026 54351 109410201
1069	69053 48 274 288 0.0000007624 0.0000008064 2 1 2 3 5
1068	69101 48 274 288 0.0000007624 0.0000008064 2 1 2 3 5
1070	69149 48 256 266 0.0000006744 0.0000007184 2 1 2 3 5
1071	69197 1432 3569 34139 0.057 0.4570009576 54 0 48 1162 36924
1072	70629 1432 3569 34139 0.057 0.4570009576 54 0 48 1162 36924
1075	72061 77 3646 34139 0.0570001912 0.4570009576 3 0 0 0 0
1076	72138 77 3646 34139 0.0570001912 0.4570009576 3 0 0 0 0
1077	72215 77 3646 34139 0.0570001912 0.4570009576 3 0 0 0 0
1078	72292 77 3646 34139 0.0570001912 0.4570009576 3 0 0 0 0
1079	72369 24 149 149 0.0000001228 0.0000001228 1 0 0 0 0
1082	72393 86 3646 34139 0.0570001912 0.4570009576 3 2000 2026 6028 12112680
1084	72479 77 3646 34139 0.0570001912 0.4570009576 3 0 0 0 0
1085	72556 77 3646 34139 0.0570001912 0.4570009576 3 0 0 0 0
1300	72633 77 3646 34139 0.0570001912 0.4570009576 3 0 0 0 0
1301	72710 1207 3569 18955 0.057 0.2570003984 54 0 24 581 9231
870	73917 1378 3569 34139 0.057 0.4570009576 54 0 48 1162 36924
869	75295 1378 3569 34139 0.057 0.4570009576 54 0 48 1162 36924
871	76673 74 3646 34139 0.0570001912 0.4570009576 3 0 0 0 0
872	76747 74 3646 34139 0.0570001912 0.4570009576 3 0 0 0 0
881	76821 86 3646 34139 0.0570001912 0.4570009576 3 65533 65535 196603 12884246539
882	76907 113 149 34139 0.0000001228 0.4570009576 4 65533 65535 262138 17179082764
885	77020 12 128 128 0 0 1 0 0 0 0
8	77032 8 0 0 0 0 1 0 0 0 0
9	77040 8 0 0 0 0 1 0 0 0 0
24	77048 9 0 0 0 0 1 0 0 0 0
25	77057 9 0 0 0 0 1 0 0 0 0
35	77066 9 0 0 0 0 1 0 0 0 0
36	77075 9 0 0 0 0 1 0 0 0 0
56	77084 9 0 0 0 0 1 0 0 0 0
57	77093 9 0 0 0 0 1 0 0 0 0
67	77102 9 0 0 0 0 1 0 0 0 0
68	77111 9 0 0 0 0 1 0 0 0 0
78	77120 9 0 0 0 0 1 0 0 0 0
79	77129 9 0 0 0 0 1 0 0 0 0
91	77138 165 1626 739557 0.027 9.106 9 44 44 396 17424
92	77303 165 1621 739552 0.027 9.106 9 45 45 405 18225
93	77468 165 1621 739552 0.027 9.106 9 44 44 396 17424
94	77633 165 1626 739557 0.027 9.106 9 45 45 405 18225
95	77798 330 1629 739638 0.027 9.107 18 45 47 828 38106
96	78128 1637710 378 814902 0.002 10 92477 0 0 0 0
97	1715838 419 1617 739634 0.027 9.107 24 0 47 435 18447
98	1716257 569337 989 814892 0.014 10 32161 0 0 0 0
99	2285594 459 1282 739634 0.021 9.107 27 0 0 0 0
100	2286053 530778 1051 814889 0.016 10 23899 1 23899 285593050 4550354065650
101	2816831 176970 2327 814892 0.038 10 8171 1 8171 33386706 181879645386
106	2993801 1329397 1051 814902 0.016 10 64080 494 644 35334444 19812910904
108	4323198 471782 1139 814900 0.018 10 23866 2 12 286189 3432753
109	4794980 153436 6681 814902 0.097 10 8144 6 8 65146 521128
111	4948416 1446852 989 814902 0.014 10 64098 1 64098 2054308851 87785410590549
112	6395268 1329762 989 814902 0.014 10 64098 226 236 14891440 3460778724
113	7725030 1201566 989 814902 0.014 10 64098 0 0 0 0
115	8926596 495 1136 739319 0.018 9.103 27 2 2 54 108
120	8927091 10 0 0 0 0 1 0 0 0 0
121	8927101 10 0 0 0 0 1 0 0 0 0
128	8927111 419 139 34134 0 0.4570008636 18 36 512 1564 344080
130	8927530 438 139 34134 0 0.4570008636 18 0 8.8e-08 3.088e-07 1.946112e-14
131	8927968 280 0 258 0 0.0000007124 13 0 2 10 14
132	8928248 828 0 34136 0 0.4570009076 37 0 1 18 18
133	8929076 421 141 34135 0 0.4570008636 18 43 519 1690 366858
134	8929497 440 146 30373 0.0000001228 0.4070009576 18 43 519 1690 366858
137	8929937 421 141 34135 0 0.4570008636 18 36 512 1564 344080
138	8930358 440 146 30373 0.0000001228 0.4070009576 18 36 512 1564 344080
141	8930798 672 3639 19034 0.0570000972 0.2570008636 27 2 2 54 108
154	8931470 92664 4003 814685 0.062 9.998 4971 0 0 0 0
178	9024134 10 0 0 0 0 1 0 0 0 0
179	9024144 10 0 0 0 0 1 0 0 0 0
186	9024154 420 140 30370 0 0.4070008636 18 36 512 1564 344080
188	9024574 439 140 30370 0 0.4070008636 18 0 8.8e-08 3.088e-07 1.946112e-14
189	9025013 280 0 257 0 0.0000007124 13 0 2 10 14
190	9025293 830 0 30372 0 0.4070009076 37 0 1 18 18
191	9026123 422 142 30371 0 0.4070008636 18 43 519 1690 366858
192	9026545 439 145 34137 0.0000001228 0.4570009576 18 43 519 1690 366858
195	9026984 422 142 30371 0 0.4070008636 18 36 512 1564 344080
196	9027406 439 145 34137 0.0000001228 0.4570009576 18 36 512 1564 344080
199	9027845 669 617 15183 0.0070000972 0.2070008636 27 2 2 54 108
205	9028514 85 3225 734885 0.052847558425 9.052847558425 3 44 44 132 5808
206	9028599 174 1866 740022 0.032 9.111 9 45 45 405 18225
207	9028773 174 1866 740022 0.032 9.111 9 44 44 396 17424
208	9028947 85 3225 734885 0.052847558425 9.052847558425 3 45 45 135 6075
209	9029032 85 3228 734888 0.052847558425 9.052847558425 3 45 45 135 6075
210	9029117 184 1735 739769 0.029 9.108 10 0 0 0 0
211	9029301 174 1862 740018 0.032 9.111 9 47 47 423 19881
212	9029475 37719 1862 814628 0.032 9.998 2000 0 0 0 0
218	9067194 42398 3231 814628 0.053 9.998 1990 1 1990 1981045 2628846715
228	9109592 184 1734 739768 0.029 9.108 10 2 2 20 40
231	9109776 10 0 0 0 0 1 1 1 1 1
237	9109786 85 3668 735345 0.057084039294 9.057084039294 3 44 44 132 5808
240	9109871 85 3668 735345 0.057084039294 9.057084039294 3 45 45 135 6075
241	9109956 85 3671 735348 0.057084039294 9.057084039294 3 45 45 135 6075
244	9110041 37518 3676 814630 0.058 9.998 1989 0 0 0 0
250	9147559 42378 3676 814630 0.058 9.998 1989 1 1989 1979055 2624886615
263	9189937 10 0 0 0 0 1 1 1 1 1
269	9189947 85 1958 733179 0.032546852513 9.032546852513 3 44 44 132 5808
272	9190032 85 1958 733179 0.032546852513 9.032546852513 3 45 45 135 6075
273	9190117 85 1961 733182 0.032546852513 9.032546852513 3 45 45 135 6075
276	9190202 37603 1966 814632 0.033 9.998 1994 0 0 0 0
282	9227805 42478 1966 814632 0.033 9.998 1994 1 1994 1989015 2644726945
295	9270283 10 0 0 0 0 1 1 1 1 1
301	9270293 85 4177 735958 0.064453871725 9.064453871725 3 44 44 132 5808
304	9270378 85 4177 735958 0.064453871725 9.064453871725 3 45 45 135 6075
305	9270463 85 4180 735961 0.064453871725 9.064453871725 3 45 45 135 6075
308	9270548 36389 4188 814841 0.065 10 1988 0 0 0 0
314	9306937 41246 4188 814841 0.065 10 1988 1 1988 1977066 2620930494
327	9348183 10 0 0 0 0 1 1 1 1 1
333	9348193 85 2236 733581 0.037261432968 9.037261432968 3 44 44 132 5808
336	9348278 85 2236 733581 0.037261432968 9.037261432968 3 45 45 135 6075
337	9348363 85 2239 733584 0.037261432968 9.037261432968 3 45 45 135 6075
340	9348448 37586 2247 814635 0.038 9.998 1993 0 0 0 0
347	9386034 42458 2247 814635 0.038 9.998 1993 1 1993 1987021 2640750909
359	9428492 10 0 0 0 0 1 1 1 1 1
365	9428502 85 3942 735682 0.061955560849 9.061955560849 3 44 44 132 5808
368	9428587 85 3942 735682 0.061955560849 9.061955560849 3 45 45 135 6075
369	9428672 85 3945 735685 0.061955560849 9.061955560849 3 45 45 135 6075
372	9428757 37501 3953 814564 0.062 9.997 1988 0 0 0 0
379	9466258 42358 3953 814564 0.062 9.997 1988 1 1988 1977066 2620930494
391	9508616 10 0 0 0 0 1 1 1 1 1
397	9508626 85 1524 732505 0.025271030879 9.025271030879 3 44 44 132 5808
400	9508711 85 1524 732505 0.025271030879 9.025271030879 3 45 45 135 6075
401	9508796 85 1527 732508 0.025271030879 9.025271030879 3 45 45 135 6075
404	9508881 37620 1538 814475 0.026 9.996 1995 0 0 0 0
410	9546501 42498 1538 814475 0.026 9.996 1995 1 1995 1991010 2648706970
423	9588999 10 0 0 0 0 1 1 1 1 1
429	9589009 85 1453 732411 0.024352218178 9.024352218178 3 44 44 132 5808
432	9589094 85 1453 732411 0.024352218178 9.024352218178 3 45 45 135 6075
433	9589179 85 1456 732414 0.024352218178 9.024352218178 3 45 45 135 6075
436	9589264 36521 1495 814846 0.025 10 1996 0 0 0 0
442	9625785 41402 1495 814846 0.025 10 1996 1 1996 1993006 2652690986
455	9667187 10 0 0 0 0 1 1 1 1 1
461	9667197 85 2845 734420 0.047532676856 9.047532676856 3 44 44 132 5808
464	9667282 85 2845 734420 0.047532676856 9.047532676856 3 45 45 135 6075
465	9667367 85 2848 734423 0.047532676856 9.047532676856 3 45 45 135 6075
468	9667452 26463 2881 814640 0.048 9.998 1393 0 0 0 0
475	9693915 29535 2881 814640 0.048 9.998 1393 1 1393 970921 901985609
487	9723450 163 0 7312 0 0.105 10 1 2 19 37
493	9723613 85 2917 734512 0.048413756283 9.048413756283 3 44 44 132 5808
496	9723698 85 2917 734512 0.048413756283 9.048413756283 3 45 45 135 6075
497	9723783 85 2920 734515 0.048413756283 9.048413756283 3 45 45 135 6075
500	9723868 26463 2961 814759 0.049 9.999 1393 0 0 0 0
507	9750331 29535 2961 814759 0.049 9.999 1393 1 1393 970921 901985609
519	9779866 163 0 7313 0 0.105 10 1 2 19 37
525	9780029 85 2041 733321 0.034129833705 9.034129833705 3 44 44 132 5808
528	9780114 85 2041 733321 0.034129833705 9.034129833705 3 45 45 135 6075
529	9780199 85 2044 733324 0.034129833705 9.034129833705 3 45 45 135 6075
532	9780284 25789 2066 814850 0.035 10 1399 0 0 0 0
539	9806073 28879 2066 814850 0.035 10 1399 1 1399 979300 913686900
551	9834952 163 0 7314 0 0.105 10 1 2 19 37
557	9835115 85 1320 732162 0.021843716542 9.021843716542 3 44 44 132 5808
560	9835200 85 1320 732162 0.021843716542 9.021843716542 3 45 45 135 6075
561	9835285 85 1323 732165 0.021843716542 9.021843716542 3 45 45 135 6075
562	9835370 389 6847 739516 0.099 9.105 21 0 0 0 0
564	9835759 38026 1337 814571 0.022 9.997 2017 0 0 0 0
570	9873785 42518 1337 814571 0.022 9.997 1996 1 1996 1993006 2652690986
583	9916303 10 0 0 0 0 1 1 1 1 1
589	9916313 84 907 731430 0.013528948517 9.013528948517 3 44 44 132 5808
592	9916397 84 907 731430 0.013528948517 9.013528948517 3 45 45 135 6075
593	9916481 84 910 731433 0.013528948517 9.013528948517 3 45 45 135 6075
596	9916565 37671 925 814763 0.014 9.999 1998 0 0 0 0
602	9954236 42558 925 814763 0.014 9.999 1998 1 1998 1997001 2660670999
615	9996794 10 0 0 0 0 1 1 1 1 1
621	9996804 84 837 731330 0.012270864309 9.012270864309 3 44 44 132 5808
624	9996888 84 837 731330 0.012270864309 9.012270864309 3 45 45 135 6075
625	9996972 252 840 732269 0.012270864309 9.023 12 0 47 276 12702
626	9997224 674294 1017 814895 0.015 10 35873 0 0 0 0
627	10671518 165 1071 732265 0.017 9.023 9 0 0 0 0
628	10671683 674076 885 814895 0.013 10 35861 0 0 0 0
647	11345759 10 0 0 0 0 1 1 1 1 1
653	11345769 85 2049 733328 0.034439526021 9.034439526021 3 44 44 132 5808
656	11345854 85 2049 733328 0.034439526021 9.034439526021 3 45 45 135 6075
657	11345939 85 2052 733331 0.034439526021 9.034439526021 3 45 45 135 6075
660	11346024 36488 2071 814855 0.035 10 1994 0 0 0 0
666	11382512 41363 2071 814855 0.035 10 1994 1 1994 1989015 2644726945
679	11423875 10 0 0 0 0 1 1 1 1 1
685	11423885 85 3157 734801 0.051566809383 9.051566809383 3 44 44 132 5808
688	11423970 85 3157 734801 0.051566809383 9.051566809383 3 45 45 135 6075
689	11424055 253 3160 735709 0.051566809383 9.062 12 0 47 276 12702
690	11424308 76606 1275 814803 0.02 9.999 4063 0 0 0 0
691	11500914 165 3462 735705 0.056 9.062 9 0 0 0 0
692	11501079 76321 1275 814803 0.02 9.999 4047 0 0 0 0
696	11577400 68 1360 1740 0.022 0.029 4 1 4 10 30
711	11577468 10 0 0 0 0 1 1 1 1 1
717	11577478 85 5036 736941 0.075361895796 9.075361895796 3 44 44 132 5808
720	11577563 85 5036 736941 0.075361895796 9.075361895796 3 45 45 135 6075
721	11577648 85 5039 736944 0.075361895796 9.075361895796 3 45 45 135 6075
724	11577733 37450 5059 814486 0.076 9.996 1985 0 0 0 0
730	11615183 42298 5059 814486 0.076 9.996 1985 1 1985 1971105 2609085985
743	11657481 10 0 0 0 0 1 1 1 1 1
749	11657491 82 3217 734878 0.05273845314 9.05273845314 3 44 44 132 5808
752	11657573 82 3217 734878 0.05273845314 9.05273845314 3 45 45 135 6075
753	11657655 82 3220 734881 0.05273845314 9.05273845314 3 45 45 135 6075
754	11657737 153562 2143 814865 0.036 10 8153 0 0 0 0
756	11811299 191097 2143 814865 0.036 10 10143 0 0 0 0
762	12002396 42270 3252 814650 0.053 9.998 1984 1 1984 1969120 2605145760
763	12044666 110 6705 739307 0.098 9.103 6 1 6 21 91
775	12044776 10 0 0 0 0 1 1 1 1 1
781	12044786 85 6207 738269 0.091364573385 9.091364573385 3 44 44 132 5808
784	12044871 85 6207 738269 0.091364573385 9.091364573385 3 45 45 135 6075
785	12044956 253 6210 739211 0.091364573385 9.102 12 5 45 288 11268
786	12045209 456130 1020 814886 0.015 10 24284 0 0 0 0
787	12501339 165 6554 739207 0.096 9.102 9 0 0 0 0
788	12501504 455066 1020 814886 0.015 10 24222 0 0 0 0
792	12956570 423 1090 6314 0.017 0.092 24 1 24 300 4900
793	12956993 459 2375 6322 0.039 0.092 26 1 26 351 6201
807	12957452 10 0 0 0 0 1 1 1 1 1
813	12957462 84 899 731423 0.013169782835 9.013169782835 3 44 44 132 5808
816	12957546 84 899 731423 0.013169782835 9.013169782835 3 45 45 135 6075
817	12957630 84 902 731426 0.013169782835 9.013169782835 3 45 45 135 6075
820	12957714 37671 933 814771 0.014 9.999 1998 0 0 0 0
826	12995385 42494 933 814771 0.014 9.999 1995 1 1995 1991010 2648706970
827	13037879 55 7218 739375 0.104 9.104 3 1 3 6 14
839	13037934 10 0 0 0 0 1 1 1 1 1
1319	13037944 93 834 731327 0.012270864309 9.012270864309 3 7504 7504 22512 168930048
1320	13038037 93 834 731327 0.012270864309 9.012270864309 3 7504 7504 22512 168930048
1322	13038130 84 834 731327 0.012270864309 9.012270864309 3 0 0 0 0
1333	13038214 84 834 731327 0.012270864309 9.012270864309 3 0 0 0 0
1343	13038298 93 896 731420 0.013169782835 9.013169782835 3 7504 7504 22512 168930048
1344	13038391 93 896 731420 0.013169782835 9.013169782835 3 7504 7504 22512 168930048
1346	13038484 84 896 731420 0.013169782835 9.013169782835 3 0 0 0 0
1357	13038568 84 896 731420 0.013169782835 9.013169782835 3 0 0 0 0
1367	13038652 93 904 731427 0.013528948517 9.013528948517 3 7504 7504 22512 168930048
1368	13038745 93 904 731427 0.013528948517 9.013528948517 3 7504 7504 22512 168930048
1370	13038838 84 904 731427 0.013528948517 9.013528948517 3 0 0 0 0
1381	13038922 84 904 731427 0.013528948517 9.013528948517 3 0 0 0 0
1391	13039006 94 1317 732159 0.021843716542 9.021843716542 3 7504 7504 22512 168930048
1392	13039100 94 1317 732159 0.021843716542 9.021843716542 3 7504 7504 22512 168930048
1394	13039194 85 1317 732159 0.021843716542 9.021843716542 3 0 0 0 0
1405	13039279 85 1317 732159 0.021843716542 9.021843716542 3 0 0 0 0
1415	13039364 94 1450 732408 0.024352218178 9.024352218178 3 7504 7504 22512 168930048
1416	13039458 94 1450 732408 0.024352218178 9.024352218178 3 7504 7504 22512 168930048
1418	13039552 85 1450 732408 0.024352218178 9.024352218178 3 0 0 0 0
1429	13039637 85 1450 732408 0.024352218178 9.024352218178 3 0 0 0 0
1439	13039722 94 1521 732502 0.025271030879 9.025271030879 3 7504 7504 22512 168930048
1440	13039816 94 1521 732502 0.025271030879 9.025271030879 3 7504 7504 22512 168930048
1442	13039910 85 1521 732502 0.025271030879 9.025271030879 3 0 0 0 0
1453	13039995 85 1521 732502 0.025271030879 9.025271030879 3 0 0 0 0
1463	13040080 94 1955 733176 0.032546852513 9.032546852513 3 7504 7504 22512 168930048
1464	13040174 94 1955 733176 0.032546852513 9.032546852513 3 7504 7504 22512 168930048
1466	13040268 85 1955 733176 0.032546852513 9.032546852513 3 0 0 0 0
1477	13040353 85 1955 733176 0.032546852513 9.032546852513 3 0 0 0 0
1487	13040438 94 2038 733318 0.034129833705 9.034129833705 3 7504 7504 22512 168930048
1488	13040532 94 2038 733318 0.034129833705 9.034129833705 3 7504 7504 22512 168930048
1490	13040626 85 2038 733318 0.034129833705 9.034129833705 3 0 0 0 0
1501	13040711 85 2038 733318 0.034129833705 9.034129833705 3 0 0 0 0
1511	13040796 94 2046 733325 0.034439526021 9.034439526021 3 7504 7504 22512 168930048
1512	13040890 94 2046 733325 0.034439526021 9.034439526021 3 7504 7504 22512 168930048
1514	13040984 85 2046 733325 0.034439526021 9.034439526021 3 0 0 0 0
1525	13041069 85 2046 733325 0.034439526021 9.034439526021 3 0 0 0 0
1535	13041154 94 2233 733578 0.037261432968 9.037261432968 3 7504 7504 22512 168930048
1536	13041248 94 2233 733578 0.037261432968 9.037261432968 3 7504 7504 22512 168930048
1538	13041342 85 2233 733578 0.037261432968 9.037261432968 3 0 0 0 0
1549	13041427 85 2233 733578 0.037261432968 9.037261432968 3 0 0 0 0
1559	13041512 94 2842 734417 0.047532676856 9.047532676856 3 7504 7504 22512 168930048
1560	13041606 94 2842 734417 0.047532676856 9.047532676856 3 7504 7504 22512 168930048
1562	13041700 85 2842 734417 0.047532676856 9.047532676856 3 0 0 0 0
1573	13041785 85 2842 734417 0.047532676856 9.047532676856 3 0 0 0 0
1583	13041870 94 2914 734509 0.048413756283 9.048413756283 3 7504 7504 22512 168930048
1584	13041964 94 2914 734509 0.048413756283 9.048413756283 3 7504 7504 22512 168930048
1586	13042058 85 2914 734509 0.048413756283 9.048413756283 3 0 0 0 0
1597	13042143 85 2914 734509 0.048413756283 9.048413756283 3 0 0 0 0
1607	13042228 94 3154 734798 0.051566809383 9.051566809383 3 7504 7504 22512 168930048
1608	13042322 94 3154 734798 0.051566809383 9.051566809383 3 7504 7504 22512 168930048
1610	13042416 85 3154 734798 0.051566809383 9.051566809383 3 0 0 0 0
1621	13042501 85 3154 734798 0.051566809383 9.051566809383 3 0 0 0 0
1631	13042586 91 3214 734875 0.05273845314 9.05273845314 3 7504 7504 22512 168930048
1632	13042677 91 3214 734875 0.05273845314 9.05273845314 3 7504 7504 22512 168930048
1634	13042768 82 3214 734875 0.05273845314 9.05273845314 3 0 0 0 0
1645	13042850 82 3214 734875 0.05273845314 9.05273845314 3 0 0 0 0
1655	13042932 94 3222 734882 0.052847558425 9.052847558425 3 7504 7504 22512 168930048
1656	13043026 94 3222 734882 0.052847558425 9.052847558425 3 7504 7504 22512 168930048
1658	13043120 85 3222 734882 0.052847558425 9.052847558425 3 0 0 0 0
1669	13043205 85 3222 734882 0.052847558425 9.052847558425 3 0 0 0 0
1679	13043290 94 3665 735342 0.057084039294 9.057084039294 3 7504 7504 22512 168930048
1680	13043384 94 3665 735342 0.057084039294 9.057084039294 3 7504 7504 22512 168930048
1682	13043478 85 3665 735342 0.057084039294 9.057084039294 3 0 0 0 0
1693	13043563 85 3665 735342 0.057084039294 9.057084039294 3 0 0 0 0
1703	13043648 94 3939 735679 0.061955560849 9.061955560849 3 7504 7504 22512 168930048
1704	13043742 94 3939 735679 0.061955560849 9.061955560849 3 7504 7504 22512 168930048
1706	13043836 85 3939 735679 0.061955560849 9.061955560849 3 0 0 0 0
1717	13043921 85 3939 735679 0.061955560849 9.061955560849 3 0 0 0 0
1727	13044006 94 4174 735955 0.064453871725 9.064453871725 3 7504 7504 22512 168930048
1728	13044100 94 4174 735955 0.064453871725 9.064453871725 3 7504 7504 22512 168930048
1730	13044194 85 4174 735955 0.064453871725 9.064453871725 3 0 0 0 0
1741	13044279 85 4174 735955 0.064453871725 9.064453871725 3 0 0 0 0
1751	13044364 94 5033 736938 0.075361895796 9.075361895796 3 7504 7504 22512 168930048
1752	13044458 94 5033 736938 0.075361895796 9.075361895796 3 7504 7504 22512 168930048
1754	13044552 85 5033 736938 0.075361895796 9.075361895796 3 0 0 0 0
1765	13044637 85 5033 736938 0.075361895796 9.075361895796 3 0 0 0 0
1775	13044722 94 6204 738266 0.091364573385 9.091364573385 3 7504 7504 22512 168930048
1776	13044816 94 6204 738266 0.091364573385 9.091364573385 3 7504 7504 22512 168930048
1778	13044910 85 6204 738266 0.091364573385 9.091364573385 3 0 0 0 0
1789	13044995 85 6204 738266 0.091364573385 9.091364573385 3 0 0 0 0
