file 13246438 1589564406                                        
version 2
run CAIN-48-20200515-14:34:07-17037
attr configname CAIN
attr datetime 20200515-14:34:07
attr dist 200
attr experiment CAIN
attr inifile omnetpp.ini
attr iterationvars "$numUe=25, $pwr=-50, $dist=200, $mob=\"./movements/RPGM-0.5.movements\""
attr iterationvars2 "$numUe=25, $pwr=-50, $dist=200, $mob=\"./movements/RPGM-0.5.movements\", $repetition=3"
attr measurement "$numUe=25, $pwr=-50, $dist=200, $mob=\"./movements/RPGM-0.5.movements\""
attr mob "\"./movements/RPGM-0.5.movements\""
attr network lte.simulations.networks.CAIN
attr numUe 25
attr processid 17037
attr pwr -50
attr repetition 3
attr replication #3
attr resultdir results
attr runnumber 48
attr seedset 3
param **.**.amcMode "\"AUTO\""
param **.amcMode "\"D2D\""
param **.cainNetwork true
param **.channelControl.alpha 1.0
param **.channelControl.carrierFrequency 2100e+6Hz
param **.channelControl.pMax 10W
param **.d2dCqi 7
param **.deployer.numRbDl 50
param **.deployer.numRbUl 50
param **.distThresh ${dist=200}
param **.fbDelay 1
param **.feedbackComputation "xmldoc(\"config_channel.xml\")"
param **.mobility.constraintAreaMaxX 1000m
param **.mobility.constraintAreaMaxY 1000m
param **.mobility.constraintAreaMaxZ 0m
param **.mobility.constraintAreaMinX 0m
param **.mobility.constraintAreaMinY 0m
param **.mobility.constraintAreaMinZ 0m
param **.nic.phy.channelModel "xmldoc(\"config_channel.xml\")"
param **.numBands 50
param **.pwrThresh "${pwr= -50}"
param **.qtdThresh 3
param **.rbAllocationType "\"localized\""
param **.routingRecorder.enabled false
param **.tcpApp[*].tClose -1s
param **.ueD2DTx[*].mobility.changeAngleBy "normal(0deg, 30deg)"
param **.ueD2DTx[*].mobility.changeInterval "normal(5s, 0.1s)"
param **.ueD2DTx[*].mobility.nodeId -1
param **.ueD2DTx[*].mobility.speed "normal(2mps, 0.01mps)"
param **.ueD2DTx[*].mobility.traceFile "${mob=\"./movements/RWP-0.0.movements\",\"./movements/RWP-0.5.movements\",\"./movements/RPGM-0.0.movements\",\"./movements/RPGM-0.5.movements\",\"./movements/RWPRPGM-0.0.movements\",\"./movements/RWPRPGM-0.5.movements\"}"
param **.ueD2DTx[*].mobilityType "\"BonnMotionMobility\""
param **.usePreconfiguredTxParams false
param *.eNodeB*.numX2Apps 1
param *.eNodeB*.x2App[*].server.localPort "5000 + ancestorIndex(1)"
param *.eNodeB.d2dCapable false
param *.eNodeB.mobility.initFromDisplayString false
param *.eNodeB.mobility.initialX 300m
param *.eNodeB.mobility.initialY 300m
param *.eNodeB.nic.phy.enableD2DCqiReporting true
param *.eNodeB.txPower 19952.62315mw
param *.eNodeB.x2App[0].client.connectAddress "\"eNodeB1%x2ppp0\""
param *.eNodeB1.d2dCapable true
param *.eNodeB1.mobility.initFromDisplayString false
param *.eNodeB1.mobility.initialX 700m
param *.eNodeB1.mobility.initialY 300m
param *.eNodeB1.nic.phy.enableD2DCqiReporting true
param *.eNodeB1.txPower 19952.62315mw
param *.eNodeB1.x2App[0].client.connectAddress "\"eNodeB%x2ppp0\""
param *.extCell[*].bandAllocationType "\"FULL_ALLOC\""
param *.extCell[*].bandUtilization 0.5
param *.extCell[*].txDirection "\"ANISOTROPIC\""
param *.extCell[*].txPower 20
param *.extCell[0].position_x 100m
param *.extCell[0].position_y 600m
param *.extCell[0].txAngle 315
param *.extCell[1].position_x 600m
param *.extCell[1].position_y 600m
param *.extCell[1].txAngle 225
param *.numExtCells 2
param *.numUeCell 0
param *.numUeD2DRx 1
param *.numUeD2DTx 1
param *.ue*.macCellId 1
param *.ue*.masterId 1
param *.ue*.mobility.initFromDisplayString false
param *.ue*[0].macCellId 1
param *.ue*[0].masterId 1
param *.ue*[0].mobility.initFromDisplayString false
param *.ueD2D*.numTcpApps 1
param *.ueD2D*[*].d2dCapable true
param *.ueD2D*[0].d2dCapable false
param *.ueD2D*[0].numTcpApps 1
param *.ueD2DRx[0].mobility.initialX 310m
param *.ueD2DRx[0].mobility.initialY 350m
param *.ueD2DRx[0].tcpApp[*].localPort 1000
param *.ueD2DRx[0].tcpApp[*].typename "\"TCPSinkApp\""
param *.ueD2DTx*.nic.d2dPeerAddresses "\"ueD2DTx[1]\""
param *.ueD2DTx*.tcpApp[*].connectAddress "\"ueD2DTx[0]\""
param *.ueD2DTx*.tcpApp[*].localAddress "\"ueD2DTx\""
param *.ueD2DTx*.tcpApp[*].localPort 1000
param *.ueD2DTx*.tcpApp[*].sendBytes 1GiB
param *.ueD2DTx*.tcpApp[*].typename "\"TCPSessionApp\""
param *.ueD2DTx*.tcpApp[0].active true
param *.ueD2DTx*.tcpApp[0].connectPort 1000
param *.ueD2DTx*.tcpApp[0].tOpen uniform(0.010s,0.1s)
param *.ueD2DTx*.tcpApp[0].tSend uniform(0.15s,0.5s)
param *.ueD2DTx[0].mobility.initialX 290m
param *.ueD2DTx[0].mobility.initialY 350m
param *.ueD2DTx[0].tcpApp[*].localPort 1000
param *.ueD2DTx[0].tcpApp[*].sendBytes 1GiB
param *.ueD2DTx[0].tcpApp[*].typename "\"TCPSessionApp\""
param *.ueD2DTx[0].tcpApp[0].active true
param *.ueD2DTx[0].tcpApp[0].connectAddress "\"ueD2DRx[0]\""
param *.ueD2DTx[0].tcpApp[0].connectPort 1000
param *.ueD2DTx[0].tcpApp[0].localAddress "\"ueD2DTx[0]\""
param *.ueD2DTx[0].tcpApp[0].tOpen uniform(0.010s,0.1s)
param *.ueD2DTx[0].tcpApp[0].tSend uniform(0.15s,0.5s)

vector 8  CAIN.server.ppp[0].queue  queueLength:vector  ETV
attr interpolationmode  sample-hold
attr title  "queue length, vector"
vector 9  CAIN.server.ppp[0].ppp  txState:vector  ETV
attr interpolationmode  sample-hold
attr title  "tx state, vector"
vector 24  CAIN.router.ppp[0].queue  queueLength:vector  ETV
attr interpolationmode  sample-hold
attr title  "queue length, vector"
vector 25  CAIN.router.ppp[0].ppp  txState:vector  ETV
attr interpolationmode  sample-hold
attr title  "tx state, vector"
vector 35  CAIN.router.ppp[1].queue  queueLength:vector  ETV
attr interpolationmode  sample-hold
attr title  "queue length, vector"
vector 36  CAIN.router.ppp[1].ppp  txState:vector  ETV
attr interpolationmode  sample-hold
attr title  "tx state, vector"
vector 56  CAIN.pgw.ppp[0].queue  queueLength:vector  ETV
attr interpolationmode  sample-hold
attr title  "queue length, vector"
vector 57  CAIN.pgw.ppp[0].ppp  txState:vector  ETV
attr interpolationmode  sample-hold
attr title  "tx state, vector"
vector 67  CAIN.pgw.ppp[1].queue  queueLength:vector  ETV
attr interpolationmode  sample-hold
attr title  "queue length, vector"
vector 68  CAIN.pgw.ppp[1].ppp  txState:vector  ETV
attr interpolationmode  sample-hold
attr title  "tx state, vector"
vector 78  CAIN.pgw.pppInterface.queue  queueLength:vector  ETV
attr interpolationmode  sample-hold
attr title  "queue length, vector"
vector 79  CAIN.pgw.pppInterface.ppp  txState:vector  ETV
attr interpolationmode  sample-hold
attr title  "tx state, vector"
vector 120  CAIN.eNodeB.pppIf.queue  queueLength:vector  ETV
attr interpolationmode  sample-hold
attr title  "queue length, vector"
vector 121  CAIN.eNodeB.pppIf.ppp  txState:vector  ETV
attr interpolationmode  sample-hold
attr title  "tx state, vector"
vector 131  CAIN.eNodeB.x2ppp[0].queue  queueLength:vector  ETV
attr interpolationmode  sample-hold
attr title  "queue length, vector"
vector 132  CAIN.eNodeB.x2ppp[0].ppp  txState:vector  ETV
attr interpolationmode  sample-hold
attr title  "tx state, vector"
vector 178  CAIN.eNodeB1.pppIf.queue  queueLength:vector  ETV
attr interpolationmode  sample-hold
attr title  "queue length, vector"
vector 179  CAIN.eNodeB1.pppIf.ppp  txState:vector  ETV
attr interpolationmode  sample-hold
attr title  "tx state, vector"
vector 189  CAIN.eNodeB1.x2ppp[0].queue  queueLength:vector  ETV
attr interpolationmode  sample-hold
attr title  "queue length, vector"
vector 190  CAIN.eNodeB1.x2ppp[0].ppp  txState:vector  ETV
attr interpolationmode  sample-hold
attr title  "tx state, vector"
vector 231  CAIN.ueD2DTx[0].nic.phy  servingCell:vector  ETV
attr source  servingCell
attr title  "ID of the serving eNodeB for the UE, vector"
attr unit  ""
vector 263  CAIN.ueD2DTx[1].nic.phy  servingCell:vector  ETV
attr source  servingCell
attr title  "ID of the serving eNodeB for the UE, vector"
attr unit  ""
vector 295  CAIN.ueD2DTx[2].nic.phy  servingCell:vector  ETV
attr source  servingCell
attr title  "ID of the serving eNodeB for the UE, vector"
attr unit  ""
vector 327  CAIN.ueD2DTx[3].nic.phy  servingCell:vector  ETV
attr source  servingCell
attr title  "ID of the serving eNodeB for the UE, vector"
attr unit  ""
vector 359  CAIN.ueD2DTx[4].nic.phy  servingCell:vector  ETV
attr source  servingCell
attr title  "ID of the serving eNodeB for the UE, vector"
attr unit  ""
vector 391  CAIN.ueD2DTx[5].nic.phy  servingCell:vector  ETV
attr source  servingCell
attr title  "ID of the serving eNodeB for the UE, vector"
attr unit  ""
vector 423  CAIN.ueD2DTx[6].nic.phy  servingCell:vector  ETV
attr source  servingCell
attr title  "ID of the serving eNodeB for the UE, vector"
attr unit  ""
vector 455  CAIN.ueD2DTx[7].nic.phy  servingCell:vector  ETV
attr source  servingCell
attr title  "ID of the serving eNodeB for the UE, vector"
attr unit  ""
vector 487  CAIN.ueD2DTx[8].nic.phy  servingCell:vector  ETV
attr source  servingCell
attr title  "ID of the serving eNodeB for the UE, vector"
attr unit  ""
vector 519  CAIN.ueD2DTx[9].nic.phy  servingCell:vector  ETV
attr source  servingCell
attr title  "ID of the serving eNodeB for the UE, vector"
attr unit  ""
vector 551  CAIN.ueD2DTx[10].nic.phy  servingCell:vector  ETV
attr source  servingCell
attr title  "ID of the serving eNodeB for the UE, vector"
attr unit  ""
vector 583  CAIN.ueD2DTx[11].nic.phy  servingCell:vector  ETV
attr source  servingCell
attr title  "ID of the serving eNodeB for the UE, vector"
attr unit  ""
vector 615  CAIN.ueD2DTx[12].nic.phy  servingCell:vector  ETV
attr source  servingCell
attr title  "ID of the serving eNodeB for the UE, vector"
attr unit  ""
vector 647  CAIN.ueD2DTx[13].nic.phy  servingCell:vector  ETV
attr source  servingCell
attr title  "ID of the serving eNodeB for the UE, vector"
attr unit  ""
vector 679  CAIN.ueD2DTx[14].nic.phy  servingCell:vector  ETV
attr source  servingCell
attr title  "ID of the serving eNodeB for the UE, vector"
attr unit  ""
vector 711  CAIN.ueD2DTx[15].nic.phy  servingCell:vector  ETV
attr source  servingCell
attr title  "ID of the serving eNodeB for the UE, vector"
attr unit  ""
vector 743  CAIN.ueD2DTx[16].nic.phy  servingCell:vector  ETV
attr source  servingCell
attr title  "ID of the serving eNodeB for the UE, vector"
attr unit  ""
vector 775  CAIN.ueD2DTx[17].nic.phy  servingCell:vector  ETV
attr source  servingCell
attr title  "ID of the serving eNodeB for the UE, vector"
attr unit  ""
vector 807  CAIN.ueD2DTx[18].nic.phy  servingCell:vector  ETV
attr source  servingCell
attr title  "ID of the serving eNodeB for the UE, vector"
attr unit  ""
vector 839  CAIN.ueD2DTx[19].nic.phy  servingCell:vector  ETV
attr source  servingCell
attr title  "ID of the serving eNodeB for the UE, vector"
attr unit  ""
vector 871  CAIN.ueD2DTx[20].nic.phy  servingCell:vector  ETV
attr source  servingCell
attr title  "ID of the serving eNodeB for the UE, vector"
attr unit  ""
vector 903  CAIN.ueD2DTx[21].nic.phy  servingCell:vector  ETV
attr source  servingCell
attr title  "ID of the serving eNodeB for the UE, vector"
attr unit  ""
vector 935  CAIN.ueD2DTx[22].nic.phy  servingCell:vector  ETV
attr source  servingCell
attr title  "ID of the serving eNodeB for the UE, vector"
attr unit  ""
vector 967  CAIN.ueD2DTx[23].nic.phy  servingCell:vector  ETV
attr source  servingCell
attr title  "ID of the serving eNodeB for the UE, vector"
attr unit  ""
vector 999  CAIN.ueD2DTx[24].nic.phy  servingCell:vector  ETV
attr source  servingCell
attr title  "ID of the serving eNodeB for the UE, vector"
attr unit  ""
vector 1023  CAIN.eNodeB.sctp  "Throughput of Association 3"  ETV
vector 1045  CAIN.eNodeB1.sctp  "Throughput of Association 4"  ETV
vector 1067  CAIN.eNodeB.sctp  "Throughput of Association 1"  ETV
vector 1087  CAIN.eNodeB.sctp  "Fast Recovery State 1:10.0.5.2"  ETV
vector 1116  CAIN.eNodeB1.sctp  "Throughput of Association 2"  ETV
vector 1136  CAIN.eNodeB1.sctp  "Fast Recovery State 2:10.0.5.1"  ETV
vector 128  CAIN.eNodeB.x2ppp[0].queue  rcvdPk:vector(packetBytes)  ETV
attr interpolationmode  none
attr title  "received packets, vector(packetBytes)"
vector 130  CAIN.eNodeB.x2ppp[0].queue  queueingTime:vector  ETV
attr interpolationmode  none
attr title  "queueing time, vector"
vector 186  CAIN.eNodeB1.x2ppp[0].queue  rcvdPk:vector(packetBytes)  ETV
attr interpolationmode  none
attr title  "received packets, vector(packetBytes)"
vector 188  CAIN.eNodeB1.x2ppp[0].queue  queueingTime:vector  ETV
attr interpolationmode  none
attr title  "queueing time, vector"
vector 137  CAIN.eNodeB.x2ppp[0].ppp  rcvdPkFromHL:vector(packetBytes)  ETV
attr interpolationmode  none
attr source  packetReceivedFromUpper
attr title  "packets received from higher layer, vector(packetBytes)"
vector 133  CAIN.eNodeB.x2ppp[0].ppp  txPk:vector(packetBytes)  ETV
attr interpolationmode  none
attr source  packetSentToLower
attr title  "packets transmitted, vector(packetBytes)"
vector 195  CAIN.eNodeB1.x2ppp[0].ppp  rcvdPkFromHL:vector(packetBytes)  ETV
attr interpolationmode  none
attr source  packetReceivedFromUpper
attr title  "packets received from higher layer, vector(packetBytes)"
vector 191  CAIN.eNodeB1.x2ppp[0].ppp  txPk:vector(packetBytes)  ETV
attr interpolationmode  none
attr source  packetSentToLower
attr title  "packets transmitted, vector(packetBytes)"
vector 192  CAIN.eNodeB1.x2ppp[0].ppp  rxPkOk:vector(packetBytes)  ETV
attr interpolationmode  none
attr source  rxPkOk
attr title  "packets received OK, vector(packetBytes)"
vector 196  CAIN.eNodeB1.x2ppp[0].ppp  passedUpPk:vector(packetBytes)  ETV
attr interpolationmode  none
attr source  packetSentToUpper
attr title  "packets passed to higher layer, vector(packetBytes)"
vector 134  CAIN.eNodeB.x2ppp[0].ppp  rxPkOk:vector(packetBytes)  ETV
attr interpolationmode  none
attr source  rxPkOk
attr title  "packets received OK, vector(packetBytes)"
vector 138  CAIN.eNodeB.x2ppp[0].ppp  passedUpPk:vector(packetBytes)  ETV
attr interpolationmode  none
attr source  packetSentToUpper
attr title  "packets passed to higher layer, vector(packetBytes)"
vector 1165  CAIN.eNodeB1.sctp  "Throughput of Association 4"  ETV
vector 1042  CAIN.eNodeB1.sctp  "Peer Rwnd 4"  ETV
vector 1185  CAIN.eNodeB1.sctp  "Fast Recovery State 5:10.0.4.1"  ETV
vector 1212  CAIN.eNodeB1.sctp  "Fast Recovery State 5:10.0.2.2"  ETV
vector 1239  CAIN.eNodeB1.sctp  "Fast Recovery State 5:10.0.5.1"  ETV
vector 1268  CAIN.eNodeB.sctp  "Throughput of Association 3"  ETV
vector 1020  CAIN.eNodeB.sctp  "Peer Rwnd 3"  ETV
vector 1288  CAIN.eNodeB.sctp  "Fast Recovery State 6:10.0.4.2"  ETV
vector 1315  CAIN.eNodeB.sctp  "Fast Recovery State 6:10.0.3.2"  ETV
vector 1342  CAIN.eNodeB.sctp  "Fast Recovery State 6:10.0.5.2"  ETV
vector 1064  CAIN.eNodeB.sctp  "Peer Rwnd 1"  ETV
vector 1369  CAIN.eNodeB.sctp  "Fast Recovery State 1:10.0.4.2"  ETV
vector 1396  CAIN.eNodeB.sctp  "Fast Recovery State 1:10.0.3.2"  ETV
vector 1113  CAIN.eNodeB1.sctp  "Peer Rwnd 2"  ETV
vector 1423  CAIN.eNodeB1.sctp  "Fast Recovery State 2:10.0.4.1"  ETV
vector 1450  CAIN.eNodeB1.sctp  "Fast Recovery State 2:10.0.2.2"  ETV
vector 1195  CAIN.eNodeB1.sctp  "Slow Start Threshold 5:10.0.2.2"  ETV
vector 1196  CAIN.eNodeB1.sctp  "Congestion Window 5:10.0.2.2"  ETV
vector 1197  CAIN.eNodeB1.sctp  "Bandwidth 5:10.0.2.2"  ETV
vector 1200  CAIN.eNodeB1.sctp  "HB Sent 5:10.0.2.2"  ETV
vector 1193  CAIN.eNodeB1.sctp  "RTO 5:10.0.2.2"  ETV
vector 1168  CAIN.eNodeB1.sctp  "Slow Start Threshold 5:10.0.4.1"  ETV
vector 1169  CAIN.eNodeB1.sctp  "Congestion Window 5:10.0.4.1"  ETV
vector 1170  CAIN.eNodeB1.sctp  "Bandwidth 5:10.0.4.1"  ETV
vector 1173  CAIN.eNodeB1.sctp  "HB Sent 5:10.0.4.1"  ETV
vector 1166  CAIN.eNodeB1.sctp  "RTO 5:10.0.4.1"  ETV
vector 1222  CAIN.eNodeB1.sctp  "Slow Start Threshold 5:10.0.5.1"  ETV
vector 1223  CAIN.eNodeB1.sctp  "Congestion Window 5:10.0.5.1"  ETV
vector 1224  CAIN.eNodeB1.sctp  "Bandwidth 5:10.0.5.1"  ETV
vector 1220  CAIN.eNodeB1.sctp  "RTO 5:10.0.5.1"  ETV
vector 1298  CAIN.eNodeB.sctp  "Slow Start Threshold 6:10.0.3.2"  ETV
vector 1299  CAIN.eNodeB.sctp  "Congestion Window 6:10.0.3.2"  ETV
vector 1300  CAIN.eNodeB.sctp  "Bandwidth 6:10.0.3.2"  ETV
vector 1303  CAIN.eNodeB.sctp  "HB Sent 6:10.0.3.2"  ETV
vector 1296  CAIN.eNodeB.sctp  "RTO 6:10.0.3.2"  ETV
vector 1271  CAIN.eNodeB.sctp  "Slow Start Threshold 6:10.0.4.2"  ETV
vector 1272  CAIN.eNodeB.sctp  "Congestion Window 6:10.0.4.2"  ETV
vector 1273  CAIN.eNodeB.sctp  "Bandwidth 6:10.0.4.2"  ETV
vector 1276  CAIN.eNodeB.sctp  "HB Sent 6:10.0.4.2"  ETV
vector 1269  CAIN.eNodeB.sctp  "RTO 6:10.0.4.2"  ETV
vector 1325  CAIN.eNodeB.sctp  "Slow Start Threshold 6:10.0.5.2"  ETV
vector 1326  CAIN.eNodeB.sctp  "Congestion Window 6:10.0.5.2"  ETV
vector 1327  CAIN.eNodeB.sctp  "Bandwidth 6:10.0.5.2"  ETV
vector 1323  CAIN.eNodeB.sctp  "RTO 6:10.0.5.2"  ETV
vector 1076  CAIN.eNodeB.sctp  "HB ACK Sent 1:10.0.5.2"  ETV
vector 1077  CAIN.eNodeB.sctp  "HB Received 1:10.0.5.2"  ETV
vector 1125  CAIN.eNodeB1.sctp  "HB ACK Sent 2:10.0.5.1"  ETV
vector 1126  CAIN.eNodeB1.sctp  "HB Received 2:10.0.5.1"  ETV
vector 1379  CAIN.eNodeB.sctp  "Slow Start Threshold 1:10.0.3.2"  ETV
vector 1380  CAIN.eNodeB.sctp  "Congestion Window 1:10.0.3.2"  ETV
vector 1381  CAIN.eNodeB.sctp  "Bandwidth 1:10.0.3.2"  ETV
vector 1384  CAIN.eNodeB.sctp  "HB Sent 1:10.0.3.2"  ETV
vector 1377  CAIN.eNodeB.sctp  "RTO 1:10.0.3.2"  ETV
vector 1352  CAIN.eNodeB.sctp  "Slow Start Threshold 1:10.0.4.2"  ETV
vector 1353  CAIN.eNodeB.sctp  "Congestion Window 1:10.0.4.2"  ETV
vector 1354  CAIN.eNodeB.sctp  "Bandwidth 1:10.0.4.2"  ETV
vector 1357  CAIN.eNodeB.sctp  "HB Sent 1:10.0.4.2"  ETV
vector 1350  CAIN.eNodeB.sctp  "RTO 1:10.0.4.2"  ETV
vector 1070  CAIN.eNodeB.sctp  "Slow Start Threshold 1:10.0.5.2"  ETV
vector 1071  CAIN.eNodeB.sctp  "Congestion Window 1:10.0.5.2"  ETV
vector 1072  CAIN.eNodeB.sctp  "Bandwidth 1:10.0.5.2"  ETV
vector 1068  CAIN.eNodeB.sctp  "RTO 1:10.0.5.2"  ETV
vector 1433  CAIN.eNodeB1.sctp  "Slow Start Threshold 2:10.0.2.2"  ETV
vector 1434  CAIN.eNodeB1.sctp  "Congestion Window 2:10.0.2.2"  ETV
vector 1435  CAIN.eNodeB1.sctp  "Bandwidth 2:10.0.2.2"  ETV
vector 1438  CAIN.eNodeB1.sctp  "HB Sent 2:10.0.2.2"  ETV
vector 1431  CAIN.eNodeB1.sctp  "RTO 2:10.0.2.2"  ETV
vector 1406  CAIN.eNodeB1.sctp  "Slow Start Threshold 2:10.0.4.1"  ETV
vector 1407  CAIN.eNodeB1.sctp  "Congestion Window 2:10.0.4.1"  ETV
vector 1408  CAIN.eNodeB1.sctp  "Bandwidth 2:10.0.4.1"  ETV
vector 1411  CAIN.eNodeB1.sctp  "HB Sent 2:10.0.4.1"  ETV
vector 1404  CAIN.eNodeB1.sctp  "RTO 2:10.0.4.1"  ETV
vector 1119  CAIN.eNodeB1.sctp  "Slow Start Threshold 2:10.0.5.1"  ETV
vector 1120  CAIN.eNodeB1.sctp  "Congestion Window 2:10.0.5.1"  ETV
vector 1121  CAIN.eNodeB1.sctp  "Bandwidth 2:10.0.5.1"  ETV
vector 1117  CAIN.eNodeB1.sctp  "RTO 2:10.0.5.1"  ETV
vector 1333  CAIN.eNodeB.sctp  "HB ACK Received 6:10.0.5.2"  ETV
vector 1324  CAIN.eNodeB.sctp  "RTT 6:10.0.5.2"  ETV
vector 1230  CAIN.eNodeB1.sctp  "HB ACK Received 5:10.0.5.1"  ETV
vector 1221  CAIN.eNodeB1.sctp  "RTT 5:10.0.5.1"  ETV
vector 1331  CAIN.eNodeB.sctp  "HB ACK Sent 6:10.0.5.2"  ETV
vector 1332  CAIN.eNodeB.sctp  "HB Received 6:10.0.5.2"  ETV
vector 1228  CAIN.eNodeB1.sctp  "HB ACK Sent 5:10.0.5.1"  ETV
vector 1229  CAIN.eNodeB1.sctp  "HB Received 5:10.0.5.1"  ETV
vector 1127  CAIN.eNodeB1.sctp  "HB ACK Received 2:10.0.5.1"  ETV
vector 1118  CAIN.eNodeB1.sctp  "RTT 2:10.0.5.1"  ETV
vector 1078  CAIN.eNodeB.sctp  "HB ACK Received 1:10.0.5.2"  ETV
vector 1069  CAIN.eNodeB.sctp  "RTT 1:10.0.5.2"  ETV
vector 96  CAIN.eNodeB.nic.mac  receivedPacketFromLowerLayer:vector(packetBytes)  ETV
attr interpolationmode  none
attr source  receivedPacketFromLowerLayer
vector 1465  CAIN.eNodeB.sctp  "SendQueue of Association 6"  ETV
vector 1328  CAIN.eNodeB.sctp  "TSN Sent 6:10.0.5.2"  ETV
vector 1335  CAIN.eNodeB.sctp  "Outstanding Bytes 6:10.0.5.2"  ETV
vector 1008  CAIN.eNodeB.sctp  "Outstanding Bytes 3:Total"  ETV
vector 1334  CAIN.eNodeB.sctp  "Queued Sent Bytes 6:10.0.5.2"  ETV
vector 1007  CAIN.eNodeB.sctp  "Queued Sent Bytes 3:Total"  ETV
vector 1123  CAIN.eNodeB1.sctp  "TSN Received 2:10.0.5.1"  ETV
vector 1099  CAIN.eNodeB1.sctp  "Queued Received Bytes 2:Total"  ETV
vector 1095  CAIN.eNodeB1.sctp  "Advertised Receiver Window 2"  ETV
vector 1104  CAIN.eNodeB1.sctp  "Number of Total Gap Blocks Stored 2"  ETV
vector 1105  CAIN.eNodeB1.sctp  "Number of Revokable Gap Blocks Stored 2"  ETV
vector 1106  CAIN.eNodeB1.sctp  "Number of Non-Revokable Gap Blocks Stored 2"  ETV
vector 1107  CAIN.eNodeB1.sctp  "Number of Duplicate TSNs Stored 2"  ETV
vector 1111  CAIN.eNodeB1.sctp  "Length of SACK Sent 2"  ETV
vector 1108  CAIN.eNodeB1.sctp  "Number of Revokable Gap Blocks Sent 2"  ETV
vector 1109  CAIN.eNodeB1.sctp  "Number of Non-Revokable Gap Blocks Sent 2"  ETV
vector 1110  CAIN.eNodeB1.sctp  "Number of Duplicate TSNs Sent 2"  ETV
vector 1115  CAIN.eNodeB1.sctp  "End to End Delay of Association 2"  ETV
vector 199  CAIN.eNodeB1.x2App[0].client  rcvdPk:vector(packetBytes)  ETV
attr interpolationmode  none
attr source  rcvdPk
attr title  "packets received, vector(packetBytes)"
vector 1464  CAIN.eNodeB.sctp  "Number of Gap Blocks in Last SACK of Association 6"  ETV
vector 1009  CAIN.eNodeB.sctp  "Number of Revokable Gap Blocks in SACK 3"  ETV
vector 1010  CAIN.eNodeB.sctp  "Number of Non-Revokable Gap Blocks in SACK 3"  ETV
vector 1345  CAIN.eNodeB.sctp  "TSN Acked CumAck 6:10.0.5.2"  ETV
vector 1311  CAIN.eNodeB.sctp  "Number of Gap Acked Chunks in Last SACK 6:10.0.3.2"  ETV
vector 1312  CAIN.eNodeB.sctp  "Number of Non-Revokable Gap Acked Chunks in Last SACK 6:10.0.3.2"  ETV
vector 1313  CAIN.eNodeB.sctp  "Number of Gap Missed Chunks in Last SACK 6:10.0.3.2"  ETV
vector 1284  CAIN.eNodeB.sctp  "Number of Gap Acked Chunks in Last SACK 6:10.0.4.2"  ETV
vector 1285  CAIN.eNodeB.sctp  "Number of Non-Revokable Gap Acked Chunks in Last SACK 6:10.0.4.2"  ETV
vector 1286  CAIN.eNodeB.sctp  "Number of Gap Missed Chunks in Last SACK 6:10.0.4.2"  ETV
vector 1338  CAIN.eNodeB.sctp  "Number of Gap Acked Chunks in Last SACK 6:10.0.5.2"  ETV
vector 1339  CAIN.eNodeB.sctp  "Number of Non-Revokable Gap Acked Chunks in Last SACK 6:10.0.5.2"  ETV
vector 1340  CAIN.eNodeB.sctp  "Number of Gap Missed Chunks in Last SACK 6:10.0.5.2"  ETV
vector 1019  CAIN.eNodeB.sctp  "Arwnd in Last SACK 3"  ETV
vector 1347  CAIN.eNodeB.sctp  "TSN PseudoCumAck 6:10.0.5.2"  ETV
vector 1348  CAIN.eNodeB.sctp  "TSN RTXPseudoCumAck 6:10.0.5.2"  ETV
vector 1341  CAIN.eNodeB.sctp  "Partial Bytes Acked 6:10.0.5.2"  ETV
vector 1493  CAIN.ueD2DTx[20].tcp  tcpRcvQueueBytes  ETV
vector 1480  CAIN.ueD2DTx[20].tcp  "advertised window"  ETV
vector 1479  CAIN.ueD2DTx[20].tcp  "receive window"  ETV
vector 1482  CAIN.ueD2DTx[20].tcp  "sent ack"  ETV
vector 845  CAIN.ueD2DTx[20].nic.pdcpRrc  receivedPacketFromUpperLayer:vector(packetBytes)  ETV
attr interpolationmode  none
attr source  receivedPacketFromUpperLayer
vector 848  CAIN.ueD2DTx[20].nic.pdcpRrc  sentPacketToLowerLayer:vector(packetBytes)  ETV
attr interpolationmode  none
attr source  sentPacketToLowerLayer
vector 849  CAIN.ueD2DTx[20].nic.mac  receivedPacketFromUpperLayer:vector(packetBytes)  ETV
attr interpolationmode  none
attr source  receivedPacketFromUpperLayer
vector 852  CAIN.ueD2DTx[20].nic.mac  sentPacketToLowerLayer:vector(packetBytes)  ETV
attr interpolationmode  none
attr source  sentPacketToLowerLayer
vector 111  CAIN.eNodeB.nic.mac  racpkt:vector  ETV
attr interpolationmode  none
attr title  "eNB received racpkt message, vector"
vector 112  CAIN.eNodeB.nic.mac  racDistanceSignal:vector  ETV
attr interpolationmode  none
attr title  "Rac distance to enb, vector"
vector 113  CAIN.eNodeB.nic.mac  racServedDevsSignal:vector  ETV
attr interpolationmode  none
attr title  "# of devices served on rac arriavall, vector"
vector 98  CAIN.eNodeB.nic.mac  sentPacketToLowerLayer:vector(packetBytes)  ETV
attr interpolationmode  none
attr source  sentPacketToLowerLayer
vector 850  CAIN.ueD2DTx[20].nic.mac  receivedPacketFromLowerLayer:vector(packetBytes)  ETV
attr interpolationmode  none
attr source  receivedPacketFromLowerLayer
vector 1517  CAIN.ueD2DTx[12].tcp  tcpRcvQueueBytes  ETV
vector 1504  CAIN.ueD2DTx[12].tcp  "advertised window"  ETV
vector 1503  CAIN.ueD2DTx[12].tcp  "receive window"  ETV
vector 1506  CAIN.ueD2DTx[12].tcp  "sent ack"  ETV
vector 589  CAIN.ueD2DTx[12].nic.pdcpRrc  receivedPacketFromUpperLayer:vector(packetBytes)  ETV
attr interpolationmode  none
attr source  receivedPacketFromUpperLayer
vector 592  CAIN.ueD2DTx[12].nic.pdcpRrc  sentPacketToLowerLayer:vector(packetBytes)  ETV
attr interpolationmode  none
attr source  sentPacketToLowerLayer
vector 593  CAIN.ueD2DTx[12].nic.mac  receivedPacketFromUpperLayer:vector(packetBytes)  ETV
attr interpolationmode  none
attr source  receivedPacketFromUpperLayer
vector 602  CAIN.ueD2DTx[12].nic.mac  CainMessageSent:vector  ETV
attr interpolationmode  none
attr title  "# of Sent CAIN message, vector"
vector 596  CAIN.ueD2DTx[12].nic.mac  sentPacketToLowerLayer:vector(packetBytes)  ETV
attr interpolationmode  none
attr source  sentPacketToLowerLayer
vector 626  CAIN.ueD2DTx[13].nic.mac  receivedPacketFromLowerLayer:vector(packetBytes)  ETV
attr interpolationmode  none
attr source  receivedPacketFromLowerLayer
vector 628  CAIN.ueD2DTx[13].nic.mac  sentPacketToLowerLayer:vector(packetBytes)  ETV
attr interpolationmode  none
attr source  sentPacketToLowerLayer
vector 106  CAIN.eNodeB.nic.mac  DistanceSignal:vector  ETV
attr interpolationmode  none
attr title  "Distance to enb, vector"
vector 100  CAIN.eNodeB.nic.mac  CainMessage:vector  ETV
attr interpolationmode  none
attr title  "eNB received CAIN message, vector"
vector 1541  CAIN.ueD2DTx[23].tcp  tcpRcvQueueBytes  ETV
vector 1528  CAIN.ueD2DTx[23].tcp  "advertised window"  ETV
vector 1527  CAIN.ueD2DTx[23].tcp  "receive window"  ETV
vector 1530  CAIN.ueD2DTx[23].tcp  "sent ack"  ETV
vector 941  CAIN.ueD2DTx[23].nic.pdcpRrc  receivedPacketFromUpperLayer:vector(packetBytes)  ETV
attr interpolationmode  none
attr source  receivedPacketFromUpperLayer
vector 944  CAIN.ueD2DTx[23].nic.pdcpRrc  sentPacketToLowerLayer:vector(packetBytes)  ETV
attr interpolationmode  none
attr source  sentPacketToLowerLayer
vector 945  CAIN.ueD2DTx[23].nic.mac  receivedPacketFromUpperLayer:vector(packetBytes)  ETV
attr interpolationmode  none
attr source  receivedPacketFromUpperLayer
vector 1565  CAIN.ueD2DTx[10].tcp  tcpRcvQueueBytes  ETV
vector 1552  CAIN.ueD2DTx[10].tcp  "advertised window"  ETV
vector 1551  CAIN.ueD2DTx[10].tcp  "receive window"  ETV
vector 1554  CAIN.ueD2DTx[10].tcp  "sent ack"  ETV
vector 525  CAIN.ueD2DTx[10].nic.pdcpRrc  receivedPacketFromUpperLayer:vector(packetBytes)  ETV
attr interpolationmode  none
attr source  receivedPacketFromUpperLayer
vector 528  CAIN.ueD2DTx[10].nic.pdcpRrc  sentPacketToLowerLayer:vector(packetBytes)  ETV
attr interpolationmode  none
attr source  sentPacketToLowerLayer
vector 529  CAIN.ueD2DTx[10].nic.mac  receivedPacketFromUpperLayer:vector(packetBytes)  ETV
attr interpolationmode  none
attr source  receivedPacketFromUpperLayer
vector 539  CAIN.ueD2DTx[10].nic.mac  CainHopMessageSent:vector  ETV
attr interpolationmode  none
attr title  "# of Sent CAIN hop message, vector"
vector 532  CAIN.ueD2DTx[10].nic.mac  sentPacketToLowerLayer:vector(packetBytes)  ETV
attr interpolationmode  none
attr source  sentPacketToLowerLayer
vector 955  CAIN.ueD2DTx[23].nic.mac  CainHopMessageSent:vector  ETV
attr interpolationmode  none
attr title  "# of Sent CAIN hop message, vector"
vector 948  CAIN.ueD2DTx[23].nic.mac  sentPacketToLowerLayer:vector(packetBytes)  ETV
attr interpolationmode  none
attr source  sentPacketToLowerLayer
vector 632  CAIN.ueD2DTx[13].nic.mac  DropedCainMessage:vector  ETV
attr interpolationmode  none
attr title  "Droped CAIN message due to RB not available, vector"
vector 1589  CAIN.ueD2DTx[22].tcp  tcpRcvQueueBytes  ETV
vector 1576  CAIN.ueD2DTx[22].tcp  "advertised window"  ETV
vector 1575  CAIN.ueD2DTx[22].tcp  "receive window"  ETV
vector 1578  CAIN.ueD2DTx[22].tcp  "sent ack"  ETV
vector 909  CAIN.ueD2DTx[22].nic.pdcpRrc  receivedPacketFromUpperLayer:vector(packetBytes)  ETV
attr interpolationmode  none
attr source  receivedPacketFromUpperLayer
vector 912  CAIN.ueD2DTx[22].nic.pdcpRrc  sentPacketToLowerLayer:vector(packetBytes)  ETV
attr interpolationmode  none
attr source  sentPacketToLowerLayer
vector 913  CAIN.ueD2DTx[22].nic.mac  receivedPacketFromUpperLayer:vector(packetBytes)  ETV
attr interpolationmode  none
attr source  receivedPacketFromUpperLayer
vector 916  CAIN.ueD2DTx[22].nic.mac  sentPacketToLowerLayer:vector(packetBytes)  ETV
attr interpolationmode  none
attr source  sentPacketToLowerLayer
vector 786  CAIN.ueD2DTx[18].nic.mac  receivedPacketFromLowerLayer:vector(packetBytes)  ETV
attr interpolationmode  none
attr source  receivedPacketFromLowerLayer
vector 788  CAIN.ueD2DTx[18].nic.mac  sentPacketToLowerLayer:vector(packetBytes)  ETV
attr interpolationmode  none
attr source  sentPacketToLowerLayer
vector 562  CAIN.ueD2DTx[11].nic.mac  receivedPacketFromLowerLayer:vector(packetBytes)  ETV
attr interpolationmode  none
attr source  receivedPacketFromLowerLayer
vector 564  CAIN.ueD2DTx[11].nic.mac  sentPacketToLowerLayer:vector(packetBytes)  ETV
attr interpolationmode  none
attr source  sentPacketToLowerLayer
vector 818  CAIN.ueD2DTx[19].nic.mac  receivedPacketFromLowerLayer:vector(packetBytes)  ETV
attr interpolationmode  none
attr source  receivedPacketFromLowerLayer
vector 820  CAIN.ueD2DTx[19].nic.mac  sentPacketToLowerLayer:vector(packetBytes)  ETV
attr interpolationmode  none
attr source  sentPacketToLowerLayer
vector 658  CAIN.ueD2DTx[14].nic.mac  receivedPacketFromLowerLayer:vector(packetBytes)  ETV
attr interpolationmode  none
attr source  receivedPacketFromLowerLayer
vector 660  CAIN.ueD2DTx[14].nic.mac  sentPacketToLowerLayer:vector(packetBytes)  ETV
attr interpolationmode  none
attr source  sentPacketToLowerLayer
vector 1613  CAIN.ueD2DTx[3].tcp  tcpRcvQueueBytes  ETV
vector 1600  CAIN.ueD2DTx[3].tcp  "advertised window"  ETV
vector 1599  CAIN.ueD2DTx[3].tcp  "receive window"  ETV
vector 1602  CAIN.ueD2DTx[3].tcp  "sent ack"  ETV
vector 301  CAIN.ueD2DTx[3].nic.pdcpRrc  receivedPacketFromUpperLayer:vector(packetBytes)  ETV
attr interpolationmode  none
attr source  receivedPacketFromUpperLayer
vector 304  CAIN.ueD2DTx[3].nic.pdcpRrc  sentPacketToLowerLayer:vector(packetBytes)  ETV
attr interpolationmode  none
attr source  sentPacketToLowerLayer
vector 305  CAIN.ueD2DTx[3].nic.mac  receivedPacketFromUpperLayer:vector(packetBytes)  ETV
attr interpolationmode  none
attr source  receivedPacketFromUpperLayer
vector 308  CAIN.ueD2DTx[3].nic.mac  sentPacketToLowerLayer:vector(packetBytes)  ETV
attr interpolationmode  none
attr source  sentPacketToLowerLayer
vector 914  CAIN.ueD2DTx[22].nic.mac  receivedPacketFromLowerLayer:vector(packetBytes)  ETV
attr interpolationmode  none
attr source  receivedPacketFromLowerLayer
vector 101  CAIN.eNodeB.nic.mac  CainHopMessage:vector  ETV
attr interpolationmode  none
attr title  "eNB received CAIN hop message, vector"
vector 825  CAIN.ueD2DTx[19].nic.mac  DropedHopMessage:vector  ETV
attr interpolationmode  none
attr title  "Droped Hop CAIN message due to RB not available, vector"
vector 665  CAIN.ueD2DTx[14].nic.mac  DropedHopMessage:vector  ETV
attr interpolationmode  none
attr title  "Droped Hop CAIN message due to RB not available, vector"
vector 915  CAIN.ueD2DTx[22].nic.mac  sentPacketToUpperLayer:vector(packetBytes)  ETV
attr interpolationmode  none
attr source  sentPacketToUpperLayer
vector 306  CAIN.ueD2DTx[3].nic.mac  receivedPacketFromLowerLayer:vector(packetBytes)  ETV
attr interpolationmode  none
attr source  receivedPacketFromLowerLayer
vector 1637  CAIN.ueD2DTx[19].tcp  tcpRcvQueueBytes  ETV
vector 1624  CAIN.ueD2DTx[19].tcp  "advertised window"  ETV
vector 1623  CAIN.ueD2DTx[19].tcp  "receive window"  ETV
vector 1626  CAIN.ueD2DTx[19].tcp  "sent ack"  ETV
vector 813  CAIN.ueD2DTx[19].nic.pdcpRrc  receivedPacketFromUpperLayer:vector(packetBytes)  ETV
attr interpolationmode  none
attr source  receivedPacketFromUpperLayer
vector 816  CAIN.ueD2DTx[19].nic.pdcpRrc  sentPacketToLowerLayer:vector(packetBytes)  ETV
attr interpolationmode  none
attr source  sentPacketToLowerLayer
vector 817  CAIN.ueD2DTx[19].nic.mac  receivedPacketFromUpperLayer:vector(packetBytes)  ETV
attr interpolationmode  none
attr source  receivedPacketFromUpperLayer
vector 307  CAIN.ueD2DTx[3].nic.mac  sentPacketToUpperLayer:vector(packetBytes)  ETV
attr interpolationmode  none
attr source  sentPacketToUpperLayer
vector 1661  CAIN.ueD2DTx[16].tcp  tcpRcvQueueBytes  ETV
vector 1648  CAIN.ueD2DTx[16].tcp  "advertised window"  ETV
vector 1647  CAIN.ueD2DTx[16].tcp  "receive window"  ETV
vector 1650  CAIN.ueD2DTx[16].tcp  "sent ack"  ETV
vector 717  CAIN.ueD2DTx[16].nic.pdcpRrc  receivedPacketFromUpperLayer:vector(packetBytes)  ETV
attr interpolationmode  none
attr source  receivedPacketFromUpperLayer
vector 720  CAIN.ueD2DTx[16].nic.pdcpRrc  sentPacketToLowerLayer:vector(packetBytes)  ETV
attr interpolationmode  none
attr source  sentPacketToLowerLayer
vector 721  CAIN.ueD2DTx[16].nic.mac  receivedPacketFromUpperLayer:vector(packetBytes)  ETV
attr interpolationmode  none
attr source  receivedPacketFromUpperLayer
vector 730  CAIN.ueD2DTx[16].nic.mac  CainMessageSent:vector  ETV
attr interpolationmode  none
attr title  "# of Sent CAIN message, vector"
vector 724  CAIN.ueD2DTx[16].nic.mac  sentPacketToLowerLayer:vector(packetBytes)  ETV
attr interpolationmode  none
attr source  sentPacketToLowerLayer
vector 819  CAIN.ueD2DTx[19].nic.mac  sentPacketToUpperLayer:vector(packetBytes)  ETV
attr interpolationmode  none
attr source  sentPacketToUpperLayer
vector 109  CAIN.eNodeB.nic.mac  ServedHopDevs:vector  ETV
attr interpolationmode  none
attr title  "# of devices served on hop forwarding, vector"
vector 1685  CAIN.ueD2DTx[24].tcp  tcpRcvQueueBytes  ETV
vector 1672  CAIN.ueD2DTx[24].tcp  "advertised window"  ETV
vector 1671  CAIN.ueD2DTx[24].tcp  "receive window"  ETV
vector 1674  CAIN.ueD2DTx[24].tcp  "sent ack"  ETV
vector 973  CAIN.ueD2DTx[24].nic.pdcpRrc  receivedPacketFromUpperLayer:vector(packetBytes)  ETV
attr interpolationmode  none
attr source  receivedPacketFromUpperLayer
vector 976  CAIN.ueD2DTx[24].nic.pdcpRrc  sentPacketToLowerLayer:vector(packetBytes)  ETV
attr interpolationmode  none
attr source  sentPacketToLowerLayer
vector 977  CAIN.ueD2DTx[24].nic.mac  receivedPacketFromUpperLayer:vector(packetBytes)  ETV
attr interpolationmode  none
attr source  receivedPacketFromUpperLayer
vector 987  CAIN.ueD2DTx[24].nic.mac  CainHopMessageSent:vector  ETV
attr interpolationmode  none
attr title  "# of Sent CAIN hop message, vector"
vector 980  CAIN.ueD2DTx[24].nic.mac  sentPacketToLowerLayer:vector(packetBytes)  ETV
attr interpolationmode  none
attr source  sentPacketToLowerLayer
vector 664  CAIN.ueD2DTx[14].nic.mac  DropedCainMessage:vector  ETV
attr interpolationmode  none
attr title  "Droped CAIN message due to RB not available, vector"
vector 1709  CAIN.ueD2DTx[5].tcp  tcpRcvQueueBytes  ETV
vector 1696  CAIN.ueD2DTx[5].tcp  "advertised window"  ETV
vector 1695  CAIN.ueD2DTx[5].tcp  "receive window"  ETV
vector 1698  CAIN.ueD2DTx[5].tcp  "sent ack"  ETV
vector 365  CAIN.ueD2DTx[5].nic.pdcpRrc  receivedPacketFromUpperLayer:vector(packetBytes)  ETV
attr interpolationmode  none
attr source  receivedPacketFromUpperLayer
vector 368  CAIN.ueD2DTx[5].nic.pdcpRrc  sentPacketToLowerLayer:vector(packetBytes)  ETV
attr interpolationmode  none
attr source  sentPacketToLowerLayer
vector 369  CAIN.ueD2DTx[5].nic.mac  receivedPacketFromUpperLayer:vector(packetBytes)  ETV
attr interpolationmode  none
attr source  receivedPacketFromUpperLayer
vector 379  CAIN.ueD2DTx[5].nic.mac  CainHopMessageSent:vector  ETV
attr interpolationmode  none
attr title  "# of Sent CAIN hop message, vector"
vector 372  CAIN.ueD2DTx[5].nic.mac  sentPacketToLowerLayer:vector(packetBytes)  ETV
attr interpolationmode  none
attr source  sentPacketToLowerLayer
vector 1733  CAIN.ueD2DTx[13].tcp  tcpRcvQueueBytes  ETV
vector 1720  CAIN.ueD2DTx[13].tcp  "advertised window"  ETV
vector 1719  CAIN.ueD2DTx[13].tcp  "receive window"  ETV
vector 1722  CAIN.ueD2DTx[13].tcp  "sent ack"  ETV
vector 621  CAIN.ueD2DTx[13].nic.pdcpRrc  receivedPacketFromUpperLayer:vector(packetBytes)  ETV
attr interpolationmode  none
attr source  receivedPacketFromUpperLayer
vector 624  CAIN.ueD2DTx[13].nic.pdcpRrc  sentPacketToLowerLayer:vector(packetBytes)  ETV
attr interpolationmode  none
attr source  sentPacketToLowerLayer
vector 625  CAIN.ueD2DTx[13].nic.mac  receivedPacketFromUpperLayer:vector(packetBytes)  ETV
attr interpolationmode  none
attr source  receivedPacketFromUpperLayer
vector 627  CAIN.ueD2DTx[13].nic.mac  sentPacketToUpperLayer:vector(packetBytes)  ETV
attr interpolationmode  none
attr source  sentPacketToUpperLayer
vector 1757  CAIN.ueD2DTx[11].tcp  tcpRcvQueueBytes  ETV
vector 1744  CAIN.ueD2DTx[11].tcp  "advertised window"  ETV
vector 1743  CAIN.ueD2DTx[11].tcp  "receive window"  ETV
vector 1746  CAIN.ueD2DTx[11].tcp  "sent ack"  ETV
vector 557  CAIN.ueD2DTx[11].nic.pdcpRrc  receivedPacketFromUpperLayer:vector(packetBytes)  ETV
attr interpolationmode  none
attr source  receivedPacketFromUpperLayer
vector 560  CAIN.ueD2DTx[11].nic.pdcpRrc  sentPacketToLowerLayer:vector(packetBytes)  ETV
attr interpolationmode  none
attr source  sentPacketToLowerLayer
vector 561  CAIN.ueD2DTx[11].nic.mac  receivedPacketFromUpperLayer:vector(packetBytes)  ETV
attr interpolationmode  none
attr source  receivedPacketFromUpperLayer
vector 1781  CAIN.ueD2DTx[8].tcp  tcpRcvQueueBytes  ETV
vector 1768  CAIN.ueD2DTx[8].tcp  "advertised window"  ETV
vector 1767  CAIN.ueD2DTx[8].tcp  "receive window"  ETV
vector 1770  CAIN.ueD2DTx[8].tcp  "sent ack"  ETV
vector 461  CAIN.ueD2DTx[8].nic.pdcpRrc  receivedPacketFromUpperLayer:vector(packetBytes)  ETV
attr interpolationmode  none
attr source  receivedPacketFromUpperLayer
vector 464  CAIN.ueD2DTx[8].nic.pdcpRrc  sentPacketToLowerLayer:vector(packetBytes)  ETV
attr interpolationmode  none
attr source  sentPacketToLowerLayer
vector 465  CAIN.ueD2DTx[8].nic.mac  receivedPacketFromUpperLayer:vector(packetBytes)  ETV
attr interpolationmode  none
attr source  receivedPacketFromUpperLayer
vector 475  CAIN.ueD2DTx[8].nic.mac  CainHopMessageSent:vector  ETV
attr interpolationmode  none
attr title  "# of Sent CAIN hop message, vector"
vector 468  CAIN.ueD2DTx[8].nic.mac  sentPacketToLowerLayer:vector(packetBytes)  ETV
attr interpolationmode  none
attr source  sentPacketToLowerLayer
vector 570  CAIN.ueD2DTx[11].nic.mac  CainMessageSent:vector  ETV
attr interpolationmode  none
attr title  "# of Sent CAIN message, vector"
vector 108  CAIN.eNodeB.nic.mac  ServedDevs:vector  ETV
attr interpolationmode  none
attr title  "# of devices served on cain forwarding, vector"
vector 1805  CAIN.ueD2DTx[14].tcp  tcpRcvQueueBytes  ETV
vector 1792  CAIN.ueD2DTx[14].tcp  "advertised window"  ETV
vector 1791  CAIN.ueD2DTx[14].tcp  "receive window"  ETV
vector 1794  CAIN.ueD2DTx[14].tcp  "sent ack"  ETV
vector 653  CAIN.ueD2DTx[14].nic.pdcpRrc  receivedPacketFromUpperLayer:vector(packetBytes)  ETV
attr interpolationmode  none
attr source  receivedPacketFromUpperLayer
vector 656  CAIN.ueD2DTx[14].nic.pdcpRrc  sentPacketToLowerLayer:vector(packetBytes)  ETV
attr interpolationmode  none
attr source  sentPacketToLowerLayer
vector 657  CAIN.ueD2DTx[14].nic.mac  receivedPacketFromUpperLayer:vector(packetBytes)  ETV
attr interpolationmode  none
attr source  receivedPacketFromUpperLayer
vector 1461  CAIN.eNodeB1.sctp  "SendQueue of Association 5"  ETV
vector 1225  CAIN.eNodeB1.sctp  "TSN Sent 5:10.0.5.1"  ETV
vector 1232  CAIN.eNodeB1.sctp  "Outstanding Bytes 5:10.0.5.1"  ETV
vector 1030  CAIN.eNodeB1.sctp  "Outstanding Bytes 4:Total"  ETV
vector 1231  CAIN.eNodeB1.sctp  "Queued Sent Bytes 5:10.0.5.1"  ETV
vector 1029  CAIN.eNodeB1.sctp  "Queued Sent Bytes 4:Total"  ETV
vector 1074  CAIN.eNodeB.sctp  "TSN Received 1:10.0.5.2"  ETV
vector 1050  CAIN.eNodeB.sctp  "Queued Received Bytes 1:Total"  ETV
vector 1046  CAIN.eNodeB.sctp  "Advertised Receiver Window 1"  ETV
vector 1055  CAIN.eNodeB.sctp  "Number of Total Gap Blocks Stored 1"  ETV
vector 1056  CAIN.eNodeB.sctp  "Number of Revokable Gap Blocks Stored 1"  ETV
vector 1057  CAIN.eNodeB.sctp  "Number of Non-Revokable Gap Blocks Stored 1"  ETV
vector 1058  CAIN.eNodeB.sctp  "Number of Duplicate TSNs Stored 1"  ETV
vector 1062  CAIN.eNodeB.sctp  "Length of SACK Sent 1"  ETV
vector 1059  CAIN.eNodeB.sctp  "Number of Revokable Gap Blocks Sent 1"  ETV
vector 1060  CAIN.eNodeB.sctp  "Number of Non-Revokable Gap Blocks Sent 1"  ETV
vector 1061  CAIN.eNodeB.sctp  "Number of Duplicate TSNs Sent 1"  ETV
vector 1066  CAIN.eNodeB.sctp  "End to End Delay of Association 1"  ETV
vector 141  CAIN.eNodeB.x2App[0].client  rcvdPk:vector(packetBytes)  ETV
attr interpolationmode  none
attr source  rcvdPk
attr title  "packets received, vector(packetBytes)"
vector 1460  CAIN.eNodeB1.sctp  "Number of Gap Blocks in Last SACK of Association 5"  ETV
vector 1031  CAIN.eNodeB1.sctp  "Number of Revokable Gap Blocks in SACK 4"  ETV
vector 1032  CAIN.eNodeB1.sctp  "Number of Non-Revokable Gap Blocks in SACK 4"  ETV
vector 1242  CAIN.eNodeB1.sctp  "TSN Acked CumAck 5:10.0.5.1"  ETV
vector 1208  CAIN.eNodeB1.sctp  "Number of Gap Acked Chunks in Last SACK 5:10.0.2.2"  ETV
vector 1209  CAIN.eNodeB1.sctp  "Number of Non-Revokable Gap Acked Chunks in Last SACK 5:10.0.2.2"  ETV
vector 1210  CAIN.eNodeB1.sctp  "Number of Gap Missed Chunks in Last SACK 5:10.0.2.2"  ETV
vector 1181  CAIN.eNodeB1.sctp  "Number of Gap Acked Chunks in Last SACK 5:10.0.4.1"  ETV
vector 1182  CAIN.eNodeB1.sctp  "Number of Non-Revokable Gap Acked Chunks in Last SACK 5:10.0.4.1"  ETV
vector 1183  CAIN.eNodeB1.sctp  "Number of Gap Missed Chunks in Last SACK 5:10.0.4.1"  ETV
vector 1235  CAIN.eNodeB1.sctp  "Number of Gap Acked Chunks in Last SACK 5:10.0.5.1"  ETV
vector 1236  CAIN.eNodeB1.sctp  "Number of Non-Revokable Gap Acked Chunks in Last SACK 5:10.0.5.1"  ETV
vector 1237  CAIN.eNodeB1.sctp  "Number of Gap Missed Chunks in Last SACK 5:10.0.5.1"  ETV
vector 1041  CAIN.eNodeB1.sctp  "Arwnd in Last SACK 4"  ETV
vector 1244  CAIN.eNodeB1.sctp  "TSN PseudoCumAck 5:10.0.5.1"  ETV
vector 1245  CAIN.eNodeB1.sctp  "TSN RTXPseudoCumAck 5:10.0.5.1"  ETV
vector 1238  CAIN.eNodeB1.sctp  "Partial Bytes Acked 5:10.0.5.1"  ETV
vector 1829  CAIN.ueD2DTx[7].tcp  tcpRcvQueueBytes  ETV
vector 1816  CAIN.ueD2DTx[7].tcp  "advertised window"  ETV
vector 1815  CAIN.ueD2DTx[7].tcp  "receive window"  ETV
vector 1818  CAIN.ueD2DTx[7].tcp  "sent ack"  ETV
vector 429  CAIN.ueD2DTx[7].nic.pdcpRrc  receivedPacketFromUpperLayer:vector(packetBytes)  ETV
attr interpolationmode  none
attr source  receivedPacketFromUpperLayer
vector 432  CAIN.ueD2DTx[7].nic.pdcpRrc  sentPacketToLowerLayer:vector(packetBytes)  ETV
attr interpolationmode  none
attr source  sentPacketToLowerLayer
vector 433  CAIN.ueD2DTx[7].nic.mac  receivedPacketFromUpperLayer:vector(packetBytes)  ETV
attr interpolationmode  none
attr source  receivedPacketFromUpperLayer
vector 436  CAIN.ueD2DTx[7].nic.mac  sentPacketToLowerLayer:vector(packetBytes)  ETV
attr interpolationmode  none
attr source  sentPacketToLowerLayer
vector 1853  CAIN.ueD2DTx[2].tcp  tcpRcvQueueBytes  ETV
vector 1840  CAIN.ueD2DTx[2].tcp  "advertised window"  ETV
vector 1839  CAIN.ueD2DTx[2].tcp  "receive window"  ETV
vector 1842  CAIN.ueD2DTx[2].tcp  "sent ack"  ETV
vector 269  CAIN.ueD2DTx[2].nic.pdcpRrc  receivedPacketFromUpperLayer:vector(packetBytes)  ETV
attr interpolationmode  none
attr source  receivedPacketFromUpperLayer
vector 272  CAIN.ueD2DTx[2].nic.pdcpRrc  sentPacketToLowerLayer:vector(packetBytes)  ETV
attr interpolationmode  none
attr source  sentPacketToLowerLayer
vector 273  CAIN.ueD2DTx[2].nic.mac  receivedPacketFromUpperLayer:vector(packetBytes)  ETV
attr interpolationmode  none
attr source  receivedPacketFromUpperLayer
vector 282  CAIN.ueD2DTx[2].nic.mac  CainMessageSent:vector  ETV
attr interpolationmode  none
attr title  "# of Sent CAIN message, vector"
vector 276  CAIN.ueD2DTx[2].nic.mac  sentPacketToLowerLayer:vector(packetBytes)  ETV
attr interpolationmode  none
attr source  sentPacketToLowerLayer
vector 434  CAIN.ueD2DTx[7].nic.mac  receivedPacketFromLowerLayer:vector(packetBytes)  ETV
attr interpolationmode  none
attr source  receivedPacketFromLowerLayer
vector 154  CAIN.eNodeB1.nic.mac  receivedPacketFromLowerLayer:vector(packetBytes)  ETV
attr interpolationmode  none
attr source  receivedPacketFromLowerLayer
vector 210  CAIN.ueD2DTx[0].nic.mac  receivedPacketFromLowerLayer:vector(packetBytes)  ETV
attr interpolationmode  none
attr source  receivedPacketFromLowerLayer
vector 212  CAIN.ueD2DTx[0].nic.mac  sentPacketToLowerLayer:vector(packetBytes)  ETV
attr interpolationmode  none
attr source  sentPacketToLowerLayer
vector 435  CAIN.ueD2DTx[7].nic.mac  sentPacketToUpperLayer:vector(packetBytes)  ETV
attr interpolationmode  none
attr source  sentPacketToUpperLayer
vector 216  CAIN.ueD2DTx[0].nic.mac  DropedCainMessage:vector  ETV
attr interpolationmode  none
attr title  "Droped CAIN message due to RB not available, vector"
vector 1877  CAIN.ueD2DTx[1].tcp  tcpRcvQueueBytes  ETV
vector 1864  CAIN.ueD2DTx[1].tcp  "advertised window"  ETV
vector 1863  CAIN.ueD2DTx[1].tcp  "receive window"  ETV
vector 1866  CAIN.ueD2DTx[1].tcp  "sent ack"  ETV
vector 237  CAIN.ueD2DTx[1].nic.pdcpRrc  receivedPacketFromUpperLayer:vector(packetBytes)  ETV
attr interpolationmode  none
attr source  receivedPacketFromUpperLayer
vector 240  CAIN.ueD2DTx[1].nic.pdcpRrc  sentPacketToLowerLayer:vector(packetBytes)  ETV
attr interpolationmode  none
attr source  sentPacketToLowerLayer
vector 241  CAIN.ueD2DTx[1].nic.mac  receivedPacketFromUpperLayer:vector(packetBytes)  ETV
attr interpolationmode  none
attr source  receivedPacketFromUpperLayer
vector 250  CAIN.ueD2DTx[1].nic.mac  CainMessageSent:vector  ETV
attr interpolationmode  none
attr title  "# of Sent CAIN message, vector"
vector 244  CAIN.ueD2DTx[1].nic.mac  sentPacketToLowerLayer:vector(packetBytes)  ETV
attr interpolationmode  none
attr source  sentPacketToLowerLayer
vector 1901  CAIN.ueD2DTx[17].tcp  tcpRcvQueueBytes  ETV
vector 1888  CAIN.ueD2DTx[17].tcp  "advertised window"  ETV
vector 1887  CAIN.ueD2DTx[17].tcp  "receive window"  ETV
vector 1890  CAIN.ueD2DTx[17].tcp  "sent ack"  ETV
vector 749  CAIN.ueD2DTx[17].nic.pdcpRrc  receivedPacketFromUpperLayer:vector(packetBytes)  ETV
attr interpolationmode  none
attr source  receivedPacketFromUpperLayer
vector 752  CAIN.ueD2DTx[17].nic.pdcpRrc  sentPacketToLowerLayer:vector(packetBytes)  ETV
attr interpolationmode  none
attr source  sentPacketToLowerLayer
vector 753  CAIN.ueD2DTx[17].nic.mac  receivedPacketFromUpperLayer:vector(packetBytes)  ETV
attr interpolationmode  none
attr source  receivedPacketFromUpperLayer
vector 762  CAIN.ueD2DTx[17].nic.mac  CainMessageSent:vector  ETV
attr interpolationmode  none
attr title  "# of Sent CAIN message, vector"
vector 756  CAIN.ueD2DTx[17].nic.mac  sentPacketToLowerLayer:vector(packetBytes)  ETV
attr interpolationmode  none
attr source  sentPacketToLowerLayer
vector 1925  CAIN.ueD2DTx[6].tcp  tcpRcvQueueBytes  ETV
vector 1912  CAIN.ueD2DTx[6].tcp  "advertised window"  ETV
vector 1911  CAIN.ueD2DTx[6].tcp  "receive window"  ETV
vector 1914  CAIN.ueD2DTx[6].tcp  "sent ack"  ETV
vector 397  CAIN.ueD2DTx[6].nic.pdcpRrc  receivedPacketFromUpperLayer:vector(packetBytes)  ETV
attr interpolationmode  none
attr source  receivedPacketFromUpperLayer
vector 400  CAIN.ueD2DTx[6].nic.pdcpRrc  sentPacketToLowerLayer:vector(packetBytes)  ETV
attr interpolationmode  none
attr source  sentPacketToLowerLayer
vector 401  CAIN.ueD2DTx[6].nic.mac  receivedPacketFromUpperLayer:vector(packetBytes)  ETV
attr interpolationmode  none
attr source  receivedPacketFromUpperLayer
vector 404  CAIN.ueD2DTx[6].nic.mac  sentPacketToLowerLayer:vector(packetBytes)  ETV
attr interpolationmode  none
attr source  sentPacketToLowerLayer
vector 1949  CAIN.ueD2DTx[21].tcp  tcpRcvQueueBytes  ETV
vector 1936  CAIN.ueD2DTx[21].tcp  "advertised window"  ETV
vector 1935  CAIN.ueD2DTx[21].tcp  "receive window"  ETV
vector 1938  CAIN.ueD2DTx[21].tcp  "sent ack"  ETV
vector 877  CAIN.ueD2DTx[21].nic.pdcpRrc  receivedPacketFromUpperLayer:vector(packetBytes)  ETV
attr interpolationmode  none
attr source  receivedPacketFromUpperLayer
vector 880  CAIN.ueD2DTx[21].nic.pdcpRrc  sentPacketToLowerLayer:vector(packetBytes)  ETV
attr interpolationmode  none
attr source  sentPacketToLowerLayer
vector 881  CAIN.ueD2DTx[21].nic.mac  receivedPacketFromUpperLayer:vector(packetBytes)  ETV
attr interpolationmode  none
attr source  receivedPacketFromUpperLayer
vector 884  CAIN.ueD2DTx[21].nic.mac  sentPacketToLowerLayer:vector(packetBytes)  ETV
attr interpolationmode  none
attr source  sentPacketToLowerLayer
vector 402  CAIN.ueD2DTx[6].nic.mac  receivedPacketFromLowerLayer:vector(packetBytes)  ETV
attr interpolationmode  none
attr source  receivedPacketFromLowerLayer
vector 856  CAIN.ueD2DTx[20].nic.mac  DropedCainMessage:vector  ETV
attr interpolationmode  none
attr title  "Droped CAIN message due to RB not available, vector"
vector 403  CAIN.ueD2DTx[6].nic.mac  sentPacketToUpperLayer:vector(packetBytes)  ETV
attr interpolationmode  none
attr source  sentPacketToUpperLayer
vector 882  CAIN.ueD2DTx[21].nic.mac  receivedPacketFromLowerLayer:vector(packetBytes)  ETV
attr interpolationmode  none
attr source  receivedPacketFromLowerLayer
vector 1973  CAIN.ueD2DTx[9].tcp  tcpRcvQueueBytes  ETV
vector 1960  CAIN.ueD2DTx[9].tcp  "advertised window"  ETV
vector 1959  CAIN.ueD2DTx[9].tcp  "receive window"  ETV
vector 1962  CAIN.ueD2DTx[9].tcp  "sent ack"  ETV
vector 493  CAIN.ueD2DTx[9].nic.pdcpRrc  receivedPacketFromUpperLayer:vector(packetBytes)  ETV
attr interpolationmode  none
attr source  receivedPacketFromUpperLayer
vector 496  CAIN.ueD2DTx[9].nic.pdcpRrc  sentPacketToLowerLayer:vector(packetBytes)  ETV
attr interpolationmode  none
attr source  sentPacketToLowerLayer
vector 497  CAIN.ueD2DTx[9].nic.mac  receivedPacketFromUpperLayer:vector(packetBytes)  ETV
attr interpolationmode  none
attr source  receivedPacketFromUpperLayer
vector 1997  CAIN.ueD2DTx[4].tcp  tcpRcvQueueBytes  ETV
vector 1984  CAIN.ueD2DTx[4].tcp  "advertised window"  ETV
vector 1983  CAIN.ueD2DTx[4].tcp  "receive window"  ETV
vector 1986  CAIN.ueD2DTx[4].tcp  "sent ack"  ETV
vector 333  CAIN.ueD2DTx[4].nic.pdcpRrc  receivedPacketFromUpperLayer:vector(packetBytes)  ETV
attr interpolationmode  none
attr source  receivedPacketFromUpperLayer
vector 336  CAIN.ueD2DTx[4].nic.pdcpRrc  sentPacketToLowerLayer:vector(packetBytes)  ETV
attr interpolationmode  none
attr source  sentPacketToLowerLayer
vector 337  CAIN.ueD2DTx[4].nic.mac  receivedPacketFromUpperLayer:vector(packetBytes)  ETV
attr interpolationmode  none
attr source  receivedPacketFromUpperLayer
vector 347  CAIN.ueD2DTx[4].nic.mac  CainHopMessageSent:vector  ETV
attr interpolationmode  none
attr title  "# of Sent CAIN hop message, vector"
vector 340  CAIN.ueD2DTx[4].nic.mac  sentPacketToLowerLayer:vector(packetBytes)  ETV
attr interpolationmode  none
attr source  sentPacketToLowerLayer
vector 883  CAIN.ueD2DTx[21].nic.mac  sentPacketToUpperLayer:vector(packetBytes)  ETV
attr interpolationmode  none
attr source  sentPacketToUpperLayer
vector 2021  CAIN.ueD2DTx[0].tcp  tcpRcvQueueBytes  ETV
vector 2008  CAIN.ueD2DTx[0].tcp  "advertised window"  ETV
vector 2007  CAIN.ueD2DTx[0].tcp  "receive window"  ETV
vector 2010  CAIN.ueD2DTx[0].tcp  "sent ack"  ETV
vector 205  CAIN.ueD2DTx[0].nic.pdcpRrc  receivedPacketFromUpperLayer:vector(packetBytes)  ETV
attr interpolationmode  none
attr source  receivedPacketFromUpperLayer
vector 208  CAIN.ueD2DTx[0].nic.pdcpRrc  sentPacketToLowerLayer:vector(packetBytes)  ETV
attr interpolationmode  none
attr source  sentPacketToLowerLayer
vector 209  CAIN.ueD2DTx[0].nic.mac  receivedPacketFromUpperLayer:vector(packetBytes)  ETV
attr interpolationmode  none
attr source  receivedPacketFromUpperLayer
vector 2045  CAIN.ueD2DTx[15].tcp  tcpRcvQueueBytes  ETV
vector 2032  CAIN.ueD2DTx[15].tcp  "advertised window"  ETV
vector 2031  CAIN.ueD2DTx[15].tcp  "receive window"  ETV
vector 2034  CAIN.ueD2DTx[15].tcp  "sent ack"  ETV
vector 685  CAIN.ueD2DTx[15].nic.pdcpRrc  receivedPacketFromUpperLayer:vector(packetBytes)  ETV
attr interpolationmode  none
attr source  receivedPacketFromUpperLayer
vector 688  CAIN.ueD2DTx[15].nic.pdcpRrc  sentPacketToLowerLayer:vector(packetBytes)  ETV
attr interpolationmode  none
attr source  sentPacketToLowerLayer
vector 689  CAIN.ueD2DTx[15].nic.mac  receivedPacketFromUpperLayer:vector(packetBytes)  ETV
attr interpolationmode  none
attr source  receivedPacketFromUpperLayer
vector 698  CAIN.ueD2DTx[15].nic.mac  CainMessageSent:vector  ETV
attr interpolationmode  none
attr title  "# of Sent CAIN message, vector"
vector 692  CAIN.ueD2DTx[15].nic.mac  sentPacketToLowerLayer:vector(packetBytes)  ETV
attr interpolationmode  none
attr source  sentPacketToLowerLayer
vector 2069  CAIN.ueD2DTx[18].tcp  tcpRcvQueueBytes  ETV
vector 2056  CAIN.ueD2DTx[18].tcp  "advertised window"  ETV
vector 2055  CAIN.ueD2DTx[18].tcp  "receive window"  ETV
vector 2058  CAIN.ueD2DTx[18].tcp  "sent ack"  ETV
vector 781  CAIN.ueD2DTx[18].nic.pdcpRrc  receivedPacketFromUpperLayer:vector(packetBytes)  ETV
attr interpolationmode  none
attr source  receivedPacketFromUpperLayer
vector 784  CAIN.ueD2DTx[18].nic.pdcpRrc  sentPacketToLowerLayer:vector(packetBytes)  ETV
attr interpolationmode  none
attr source  sentPacketToLowerLayer
vector 785  CAIN.ueD2DTx[18].nic.mac  receivedPacketFromUpperLayer:vector(packetBytes)  ETV
attr interpolationmode  none
attr source  receivedPacketFromUpperLayer
vector 794  CAIN.ueD2DTx[18].nic.mac  CainMessageSent:vector  ETV
attr interpolationmode  none
attr title  "# of Sent CAIN message, vector"
vector 115  CAIN.eNodeB.nic.phy  averageCqiUlvect:vector  ETV
attr source  averageCqiUlvect
attr title  "Average Cqi reported in UL, vector"
attr unit  cqi
vector 218  CAIN.ueD2DTx[0].nic.mac  CainMessageSent:vector  ETV
attr interpolationmode  none
attr title  "# of Sent CAIN message, vector"
vector 851  CAIN.ueD2DTx[20].nic.mac  sentPacketToUpperLayer:vector(packetBytes)  ETV
attr interpolationmode  none
attr source  sentPacketToUpperLayer
vector 659  CAIN.ueD2DTx[14].nic.mac  sentPacketToUpperLayer:vector(packetBytes)  ETV
attr interpolationmode  none
attr source  sentPacketToUpperLayer
vector 507  CAIN.ueD2DTx[9].nic.mac  CainHopMessageSent:vector  ETV
attr interpolationmode  none
attr title  "# of Sent CAIN hop message, vector"
vector 500  CAIN.ueD2DTx[9].nic.mac  sentPacketToLowerLayer:vector(packetBytes)  ETV
attr interpolationmode  none
attr source  sentPacketToLowerLayer
vector 442  CAIN.ueD2DTx[7].nic.mac  CainMessageSent:vector  ETV
attr interpolationmode  none
attr title  "# of Sent CAIN message, vector"
1268	55016 24 175 175 0.0000001228 0.0000001228 1 0 0 0 0
1379	55040 28 260 260 0.0000006304 0.0000006304 1 65535 65535 65535 4294836225
1380	55068 27 260 260 0.0000006304 0.0000006304 1 8940 8940 8940 79923600
1381	55095 29 260 260 0.0000006304 0.0000006304 1 0.3725 0.3725 0.3725 0.13875625
1377	55124 24 260 260 0.0000006304 0.0000006304 1 3 3 3 9
1384	55148 24 260 260 0.0000006304 0.0000006304 1 1 1 1 1
1396	55172 24 188 188 0.0000003096 0.0000003096 1 0 0 0 0
1352	55196 28 260 260 0.0000006304 0.0000006304 1 65535 65535 65535 4294836225
1353	55224 27 260 260 0.0000006304 0.0000006304 1 8940 8940 8940 79923600
1354	55251 29 260 260 0.0000006304 0.0000006304 1 0.3725 0.3725 0.3725 0.13875625
1350	55280 24 260 260 0.0000006304 0.0000006304 1 3 3 3 9
1357	55304 24 260 260 0.0000006304 0.0000006304 1 1 1 1 1
1369	55328 24 188 188 0.0000003096 0.0000003096 1 0 0 0 0
1070	55352 28 260 260 0.0000006304 0.0000006304 1 65535 65535 65535 4294836225
1071	55380 27 260 260 0.0000006304 0.0000006304 1 8940 8940 8940 79923600
1072	55407 29 260 260 0.0000006304 0.0000006304 1 0.3725 0.3725 0.3725 0.13875625
1068	55436 48 260 327 0.0000006304 0.0000008564 2 1 3 4 10
1069	55484 31 327 327 0.0000008564 0.0000008564 1 2.26e-07 2.26e-07 2.26e-07 5.1076e-14
1074	55515 780 4047 22579 0.0570000972 0.2570008636 27 2000 2026 54351 109410201
1077	56295 46 232 246 0.000000552 0.000000596 2 1 2 3 5
1076	56341 46 232 246 0.000000552 0.000000596 2 1 2 3 5
1078	56387 48 327 333 0.0000008564 0.0000009004 2 1 2 3 5
1087	56435 13 156 156 0 0 1 0 0 0 0
1046	56448 89 4047 41310 0.0570000972 0.4570008636 3 65533 65535 196603 12884246539
1050	56537 777 4047 41310 0.0570000972 0.4570008636 30 0 48 56 2328
1055	57314 77 4047 41310 0.0570000972 0.4570008636 3 0 0 0 0
1056	57391 77 4047 41310 0.0570000972 0.4570008636 3 0 0 0 0
1057	57468 77 4047 41310 0.0570000972 0.4570008636 3 0 0 0 0
1058	57545 77 4047 41310 0.0570000972 0.4570008636 3 0 0 0 0
1059	57622 77 4047 41310 0.0570000972 0.4570008636 3 0 0 0 0
1060	57699 77 4047 41310 0.0570000972 0.4570008636 3 0 0 0 0
1061	57776 77 4047 41310 0.0570000972 0.4570008636 3 0 0 0 0
1062	57853 80 4047 41310 0.0570000972 0.4570008636 3 16 16 48 768
1064	57933 28 188 188 0.0000003096 0.0000003096 1 65535 65535 65535 4294836225
1066	57961 914 4050 22604 0.0570000972 0.2570008636 27 9.72e-08 4.652e-07 1.14884e-05 5.22894128e-12
1067	58875 13 156 156 0 0 1 0 0 0 0
1298	58888 27 203 203 0.000000458 0.000000458 1 65535 65535 65535 4294836225
1299	58915 26 203 203 0.000000458 0.000000458 1 8940 8940 8940 79923600
1300	58941 28 203 203 0.000000458 0.000000458 1 0.3725 0.3725 0.3725 0.13875625
1296	58969 23 203 203 0.000000458 0.000000458 1 3 3 3 9
1303	58992 23 203 203 0.000000458 0.000000458 1 1 1 1 1
1311	59015 76 714 36660 0.0070001912 0.4070009576 3 0 0 0 0
1312	59091 76 714 36660 0.0070001912 0.4070009576 3 0 0 0 0
1313	59167 76 714 36660 0.0070001912 0.4070009576 3 0 0 0 0
1315	59243 24 175 175 0.0000001228 0.0000001228 1 0 0 0 0
1271	59267 27 203 203 0.000000458 0.000000458 1 65535 65535 65535 4294836225
1272	59294 26 203 203 0.000000458 0.000000458 1 8940 8940 8940 79923600
1273	59320 28 203 203 0.000000458 0.000000458 1 0.3725 0.3725 0.3725 0.13875625
1269	59348 23 203 203 0.000000458 0.000000458 1 3 3 3 9
1276	59371 23 203 203 0.000000458 0.000000458 1 1 1 1 1
1284	59394 76 714 36660 0.0070001912 0.4070009576 3 0 0 0 0
1285	59470 76 714 36660 0.0070001912 0.4070009576 3 0 0 0 0
1286	59546 76 714 36660 0.0070001912 0.4070009576 3 0 0 0 0
1288	59622 24 175 175 0.0000001228 0.0000001228 1 0 0 0 0
1325	59646 58 203 110825 0.000000458 1.2070003984 2 65535 65535 131070 8589672450
1326	59704 56 203 110825 0.000000458 1.2070003984 2 8940 8940 17880 159847200
1327	59760 59 203 110825 0.000000458 1.2070003984 2 0.3725 23.84 24.2125 568.48435625
1323	59819 123 203 36660 0.000000458 0.4070009576 5 1 3 7 13
1324	59942 138 280 36660 0.0000006744 0.4070009576 4 1.912e-07 0.2000005592 0.400001174 0.080000306560439
1328	60080 770 664 17844 0.007 0.2070003984 27 2000 2026 54351 109410201
1332	60850 48 298 312 0.0000007624 0.0000008064 2 1 2 3 5
1331	60898 48 298 312 0.0000007624 0.0000008064 2 1 2 3 5
1333	60946 48 280 290 0.0000006744 0.0000007184 2 1 2 3 5
1334	60994 1428 664 36660 0.007 0.4070009576 54 0 48 1162 36924
1335	62422 1428 664 36660 0.007 0.4070009576 54 0 48 1162 36924
1338	63850 76 714 36660 0.0070001912 0.4070009576 3 0 0 0 0
1339	63926 76 714 36660 0.0070001912 0.4070009576 3 0 0 0 0
1340	64002 76 714 36660 0.0070001912 0.4070009576 3 0 0 0 0
1341	64078 76 714 36660 0.0070001912 0.4070009576 3 0 0 0 0
1342	64154 24 175 175 0.0000001228 0.0000001228 1 0 0 0 0
1345	64178 85 714 36660 0.0070001912 0.4070009576 3 2000 2026 6028 12112680
1347	64263 76 714 36660 0.0070001912 0.4070009576 3 0 0 0 0
1348	64339 76 714 36660 0.0070001912 0.4070009576 3 0 0 0 0
1464	64415 76 714 36660 0.0070001912 0.4070009576 3 0 0 0 0
1465	64491 1200 664 17844 0.007 0.2070003984 54 0 24 581 9231
1008	65691 1428 664 36660 0.007 0.4070009576 54 0 48 1162 36924
1007	67119 1428 664 36660 0.007 0.4070009576 54 0 48 1162 36924
1009	68547 76 714 36660 0.0070001912 0.4070009576 3 0 0 0 0
1010	68623 76 714 36660 0.0070001912 0.4070009576 3 0 0 0 0
1019	68699 88 714 36660 0.0070001912 0.4070009576 3 65533 65535 196603 12884246539
1020	68787 116 175 36660 0.0000001228 0.4070009576 4 65533 65535 262138 17179082764
1023	68903 13 148 148 0 0 1 0 0 0 0
1165	68916 24 174 174 0.0000001228 0.0000001228 1 0 0 0 0
1433	68940 28 261 261 0.0000006304 0.0000006304 1 65535 65535 65535 4294836225
1434	68968 27 261 261 0.0000006304 0.0000006304 1 8940 8940 8940 79923600
1435	68995 29 261 261 0.0000006304 0.0000006304 1 0.3725 0.3725 0.3725 0.13875625
1431	69024 24 261 261 0.0000006304 0.0000006304 1 3 3 3 9
1438	69048 24 261 261 0.0000006304 0.0000006304 1 1 1 1 1
1450	69072 24 189 189 0.0000003096 0.0000003096 1 0 0 0 0
1406	69096 28 261 261 0.0000006304 0.0000006304 1 65535 65535 65535 4294836225
1407	69124 27 261 261 0.0000006304 0.0000006304 1 8940 8940 8940 79923600
1408	69151 29 261 261 0.0000006304 0.0000006304 1 0.3725 0.3725 0.3725 0.13875625
1404	69180 24 261 261 0.0000006304 0.0000006304 1 3 3 3 9
1411	69204 24 261 261 0.0000006304 0.0000006304 1 1 1 1 1
1423	69228 24 189 189 0.0000003096 0.0000003096 1 0 0 0 0
1119	69252 28 261 261 0.0000006304 0.0000006304 1 65535 65535 65535 4294836225
1120	69280 27 261 261 0.0000006304 0.0000006304 1 8940 8940 8940 79923600
1121	69307 29 261 261 0.0000006304 0.0000006304 1 0.3725 0.3725 0.3725 0.13875625
1117	69336 48 261 326 0.0000006304 0.0000008564 2 1 3 4 10
1118	69384 31 326 326 0.0000008564 0.0000008564 1 2.26e-07 2.26e-07 2.26e-07 5.1076e-14
1123	69415 777 702 17851 0.0070000972 0.2070008636 27 2000 2026 54351 109410201
1126	70192 46 233 247 0.000000552 0.000000596 2 1 2 3 5
1125	70238 46 233 247 0.000000552 0.000000596 2 1 2 3 5
1127	70284 48 326 332 0.0000008564 0.0000009004 2 1 2 3 5
1136	70332 13 157 157 0 0 1 0 0 0 0
1095	70345 88 702 36653 0.0070000972 0.4070008636 3 65533 65535 196603 12884246539
1099	70433 773 702 36653 0.0070000972 0.4070008636 30 0 48 56 2328
1104	71206 76 702 36653 0.0070000972 0.4070008636 3 0 0 0 0
1105	71282 76 702 36653 0.0070000972 0.4070008636 3 0 0 0 0
1106	71358 76 702 36653 0.0070000972 0.4070008636 3 0 0 0 0
1107	71434 76 702 36653 0.0070000972 0.4070008636 3 0 0 0 0
1108	71510 76 702 36653 0.0070000972 0.4070008636 3 0 0 0 0
1109	71586 76 702 36653 0.0070000972 0.4070008636 3 0 0 0 0
1110	71662 76 702 36653 0.0070000972 0.4070008636 3 0 0 0 0
1111	71738 79 702 36653 0.0070000972 0.4070008636 3 16 16 48 768
1113	71817 28 189 189 0.0000003096 0.0000003096 1 65535 65535 65535 4294836225
1115	71845 911 705 17876 0.0070000972 0.2070008636 27 9.72e-08 4.652e-07 1.14884e-05 5.22894128e-12
1116	72756 13 157 157 0 0 1 0 0 0 0
1195	72769 27 202 202 0.000000458 0.000000458 1 65535 65535 65535 4294836225
1196	72796 26 202 202 0.000000458 0.000000458 1 8940 8940 8940 79923600
1197	72822 28 202 202 0.000000458 0.000000458 1 0.3725 0.3725 0.3725 0.13875625
1193	72850 23 202 202 0.000000458 0.000000458 1 3 3 3 9
1200	72873 23 202 202 0.000000458 0.000000458 1 1 1 1 1
1208	72896 77 4059 41317 0.0570001912 0.4570009576 3 0 0 0 0
1209	72973 77 4059 41317 0.0570001912 0.4570009576 3 0 0 0 0
1210	73050 77 4059 41317 0.0570001912 0.4570009576 3 0 0 0 0
1212	73127 24 174 174 0.0000001228 0.0000001228 1 0 0 0 0
1168	73151 27 202 202 0.000000458 0.000000458 1 65535 65535 65535 4294836225
1169	73178 26 202 202 0.000000458 0.000000458 1 8940 8940 8940 79923600
1170	73204 28 202 202 0.000000458 0.000000458 1 0.3725 0.3725 0.3725 0.13875625
1166	73232 23 202 202 0.000000458 0.000000458 1 3 3 3 9
1173	73255 23 202 202 0.000000458 0.000000458 1 1 1 1 1
1181	73278 77 4059 41317 0.0570001912 0.4570009576 3 0 0 0 0
1182	73355 77 4059 41317 0.0570001912 0.4570009576 3 0 0 0 0
1183	73432 77 4059 41317 0.0570001912 0.4570009576 3 0 0 0 0
1185	73509 24 174 174 0.0000001228 0.0000001228 1 0 0 0 0
1222	73533 58 202 115384 0.000000458 1.2570003984 2 65535 65535 131070 8589672450
1223	73591 56 202 115384 0.000000458 1.2570003984 2 8940 8940 17880 159847200
1224	73647 59 202 115384 0.000000458 1.2570003984 2 0.3725 23.84 24.2125 568.48435625
1220	73706 124 202 41317 0.000000458 0.4570009576 5 1 3 7 13
1221	73830 139 281 41317 0.0000006744 0.4570009576 4 1.912e-07 0.2000005592 0.400001174 0.080000306560439
1225	73969 773 3982 22572 0.057 0.2570003984 27 2000 2026 54351 109410201
1229	74742 48 299 313 0.0000007624 0.0000008064 2 1 2 3 5
1228	74790 48 299 313 0.0000007624 0.0000008064 2 1 2 3 5
1230	74838 48 281 291 0.0000006744 0.0000007184 2 1 2 3 5
1231	74886 1432 3982 41317 0.057 0.4570009576 54 0 48 1162 36924
1232	76318 1432 3982 41317 0.057 0.4570009576 54 0 48 1162 36924
1235	77750 77 4059 41317 0.0570001912 0.4570009576 3 0 0 0 0
1236	77827 77 4059 41317 0.0570001912 0.4570009576 3 0 0 0 0
1237	77904 77 4059 41317 0.0570001912 0.4570009576 3 0 0 0 0
1238	77981 77 4059 41317 0.0570001912 0.4570009576 3 0 0 0 0
1239	78058 24 174 174 0.0000001228 0.0000001228 1 0 0 0 0
1242	78082 86 4059 41317 0.0570001912 0.4570009576 3 2000 2026 6028 12112680
1244	78168 77 4059 41317 0.0570001912 0.4570009576 3 0 0 0 0
1245	78245 77 4059 41317 0.0570001912 0.4570009576 3 0 0 0 0
1460	78322 77 4059 41317 0.0570001912 0.4570009576 3 0 0 0 0
1461	78399 1207 3982 22572 0.057 0.2570003984 54 0 24 581 9231
1030	79606 1432 3982 41317 0.057 0.4570009576 54 0 48 1162 36924
1029	81038 1432 3982 41317 0.057 0.4570009576 54 0 48 1162 36924
1031	82470 77 4059 41317 0.0570001912 0.4570009576 3 0 0 0 0
1032	82547 77 4059 41317 0.0570001912 0.4570009576 3 0 0 0 0
1041	82624 89 4059 41317 0.0570001912 0.4570009576 3 65533 65535 196603 12884246539
1042	82713 117 174 41317 0.0000001228 0.4570009576 4 65533 65535 262138 17179082764
1045	82830 13 153 153 0 0 1 0 0 0 0
8	82843 8 0 0 0 0 1 0 0 0 0
9	82851 8 0 0 0 0 1 0 0 0 0
24	82859 9 0 0 0 0 1 0 0 0 0
25	82868 9 0 0 0 0 1 0 0 0 0
35	82877 9 0 0 0 0 1 0 0 0 0
36	82886 9 0 0 0 0 1 0 0 0 0
56	82895 9 0 0 0 0 1 0 0 0 0
57	82904 9 0 0 0 0 1 0 0 0 0
67	82913 9 0 0 0 0 1 0 0 0 0
68	82922 9 0 0 0 0 1 0 0 0 0
78	82931 9 0 0 0 0 1 0 0 0 0
79	82940 9 0 0 0 0 1 0 0 0 0
96	82949 1783312 418 949888 0.002 10 100325 0 0 0 0
98	1866261 716339 1277 949865 0.018 10 40197 0 0 0 0
100	2582600 376723 1511 949865 0.022 10 17003 1 17003 144559506 1638678373514
101	2959323 267246 1820 949773 0.026 9.999 12142 1 12142 73720153 596764638535
106	3226569 1192553 1511 949888 0.022 10 57176 452 645 32891923 19264167829
108	4419122 304836 3747 949880 0.054 10 16090 3 10 146396 1333724
109	4723958 225410 2281 949888 0.033 10 11941 4 9 105189 928561
111	4949368 1419359 1277 949888 0.018 10 62615 1 62615 1960350420 81832214482340
112	6368727 1305235 1277 949888 0.018 10 62615 226 320 15588938 3959702614
113	7673962 1180005 1277 949888 0.018 10 62615 0 0 0 0
115	8853967 19472 6715 767129 0.088 8.098 1033 2 6 2094 4308
120	8873439 10 0 0 0 0 1 0 0 0 0
121	8873449 10 0 0 0 0 1 0 0 0 0
128	8873459 419 164 41312 0 0.4570008636 18 36 512 1564 344080
130	8873878 438 164 41312 0 0.4570008636 18 0 8.8e-08 3.088e-07 1.946112e-14
131	8874316 280 0 283 0 0.0000007124 13 0 2 10 14
132	8874596 828 0 41314 0 0.4570009076 37 0 1 18 18
133	8875424 421 166 41313 0 0.4570008636 18 43 519 1690 366858
134	8875845 440 171 36658 0.0000001228 0.4070009576 18 43 519 1690 366858
137	8876285 421 166 41313 0 0.4570008636 18 36 512 1564 344080
138	8876706 440 171 36658 0.0000001228 0.4070009576 18 36 512 1564 344080
141	8877146 672 4052 22651 0.0570000972 0.2570008636 27 2 2 54 108
154	8877818 92790 4409 949615 0.062 9.998 4971 0 0 0 0
178	8970608 10 0 0 0 0 1 0 0 0 0
179	8970618 10 0 0 0 0 1 0 0 0 0
186	8970628 420 165 36655 0 0.4070008636 18 36 512 1564 344080
188	8971048 439 165 36655 0 0.4070008636 18 0 8.8e-08 3.088e-07 1.946112e-14
189	8971487 280 0 282 0 0.0000007124 13 0 2 10 14
190	8971767 830 0 36657 0 0.4070009076 37 0 1 18 18
191	8972597 422 167 36656 0 0.4070008636 18 43 519 1690 366858
192	8973019 439 170 41315 0.0000001228 0.4570009576 18 43 519 1690 366858
195	8973458 422 167 36656 0 0.4070008636 18 36 512 1564 344080
196	8973880 439 170 41315 0.0000001228 0.4570009576 18 36 512 1564 344080
199	8974319 669 707 17923 0.0070000972 0.2070008636 27 2 2 54 108
205	8974988 82 6161 858824 0.08215464002 9.08215464002 3 44 44 132 5808
208	8975070 82 6161 858824 0.08215464002 9.08215464002 3 45 45 135 6075
209	8975152 82 6164 858827 0.08215464002 9.08215464002 3 45 45 135 6075
210	8975234 118689 4459 949659 0.062 9.998 6354 0 0 0 0
212	9093923 109425 4459 949477 0.062 9.997 5833 0 0 0 0
216	9203348 151 4596 6426 0.064 0.085 9 1 9 45 285
218	9203499 18851 7564 949477 0.098 9.997 909 1 909 413595 250776435
231	9222350 10 0 0 0 0 1 1 1 1 1
237	9222360 85 4736 857123 0.066956260251 9.066956260251 3 44 44 132 5808
240	9222445 85 4736 857123 0.066956260251 9.066956260251 3 45 45 135 6075
241	9222530 85 4739 857126 0.066956260251 9.066956260251 3 45 45 135 6075
244	9222615 37536 4768 949479 0.067 9.997 1987 0 0 0 0
250	9260151 42390 4768 949479 0.067 9.997 1987 1 1987 1975078 2616978350
263	9302541 10 0 0 0 0 1 1 1 1 1
269	9302551 85 4273 856526 0.060918334927 9.060918334927 3 44 44 132 5808
272	9302636 85 4273 856526 0.060918334927 9.060918334927 3 45 45 135 6075
273	9302721 85 4276 856529 0.060918334927 9.060918334927 3 45 45 135 6075
276	9302806 37553 4307 949377 0.061 9.996 1988 0 0 0 0
282	9340359 42410 4307 949377 0.061 9.996 1988 1 1988 1977066 2620930494
295	9382769 10 0 0 0 0 1 1 1 1 1
301	9382779 85 1713 853002 0.025952952534 9.025952952534 3 44 44 132 5808
304	9382864 85 1713 853002 0.025952952534 9.025952952534 3 45 45 135 6075
305	9382949 8209 1716 911196 0.025952952534 9.61 455 0 45 306 8306
306	9391158 146716 1908 949874 0.028 10 7809 0 0 0 0
307	9537874 8120 1990 911192 0.03 9.61 452 0 0 0 0
308	9545994 138343 1723 949874 0.026 10 7357 0 0 0 0
327	9684337 10 0 0 0 0 1 1 1 1 1
333	9684347 82 5560 858108 0.07505697578 9.07505697578 3 44 44 132 5808
336	9684429 82 5560 858108 0.07505697578 9.07505697578 3 45 45 135 6075
337	9684511 82 5563 858111 0.07505697578 9.07505697578 3 45 45 135 6075
340	9684593 37502 5573 949380 0.076 9.996 1985 0 0 0 0
347	9722095 42350 5573 949380 0.076 9.996 1985 1 1985 1971105 2609085985
359	9764445 10 0 0 0 0 1 1 1 1 1
365	9764455 85 2534 854227 0.037729873816 9.037729873816 3 44 44 132 5808
368	9764540 85 2534 854227 0.037729873816 9.037729873816 3 45 45 135 6075
369	9764625 85 2537 854230 0.037729873816 9.037729873816 3 45 45 135 6075
372	9764710 37638 2546 949560 0.038 9.998 1993 0 0 0 0
379	9802348 42510 2546 949560 0.038 9.998 1993 1 1993 1987021 2640750909
391	9844858 10 0 0 0 0 1 1 1 1 1
397	9844868 85 5033 857466 0.069116189484 9.069116189484 3 44 44 132 5808
400	9844953 85 5033 857466 0.069116189484 9.069116189484 3 45 45 135 6075
401	9845038 23813 5036 861543 0.069116189484 9.109 1263 0 45 322 7444
402	9868851 54603 5235 949844 0.072 10 2902 0 0 0 0
403	9923454 23727 5349 861539 0.074 9.109 1260 0 0 0 0
404	9947181 30168 5049 949844 0.07 10 1642 0 0 0 0
423	9977349 10 0 0 0 0 1 1 1 1 1
429	9977359 85 4136 856337 0.058808041334 9.058808041334 3 44 44 132 5808
432	9977444 85 4136 856337 0.058808041334 9.058808041334 3 45 45 135 6075
433	9977529 8229 4139 856340 0.058808041334 9.058808041334 443 0 45 245 7771
434	9985758 16301 4340 395029 0.061 4.207 881 0 0 0 0
435	10002059 8141 4504 395085 0.063 4.208 440 0 0 0 0
436	10010200 11751 4149 949715 0.059 9.999 630 0 0 0 0
442	10021951 3861 856350 949715 9.059 9.999 189 1 189 17955 2268315
455	10025812 10 0 0 0 0 1 1 1 1 1
461	10025822 82 3664 855804 0.05394782705 9.05394782705 3 44 44 132 5808
464	10025904 82 3664 855804 0.05394782705 9.05394782705 3 45 45 135 6075
465	10025986 82 3667 855807 0.05394782705 9.05394782705 3 45 45 135 6075
468	10026068 26427 3704 949717 0.054 9.999 1391 0 0 0 0
475	10052495 29493 3704 949717 0.054 9.999 1391 1 1391 968136 898107496
487	10081988 163 0 8290 0 0.105 10 1 2 19 37
493	10082151 85 5479 858016 0.074373740533 9.074373740533 3 44 44 132 5808
496	10082236 85 5479 858016 0.074373740533 9.074373740533 3 45 45 135 6075
497	10082321 85 5482 858019 0.074373740533 9.074373740533 3 45 45 135 6075
500	10082406 25558 278978 949818 3.075 10 1386 0 0 0 0
507	10107964 28609 278978 949818 3.075 10 1386 1 1386 961191 888460881
519	10136573 163 0 8291 0 0.105 10 1 2 19 37
525	10136736 85 1525 852713 0.022555459228 9.022555459228 3 44 44 132 5808
528	10136821 85 1525 852713 0.022555459228 9.022555459228 3 45 45 135 6075
529	10136906 85 1528 852716 0.022555459228 9.022555459228 3 45 45 135 6075
532	10136991 26643 1541 949566 0.023 9.998 1403 0 0 0 0
539	10163634 29745 1541 949566 0.023 9.998 1403 1 1403 984906 921543714
551	10193379 163 0 8292 0 0.105 10 1 2 19 37
557	10193542 85 3656 855797 0.053440309435 9.053440309435 3 44 44 132 5808
560	10193627 85 3656 855797 0.053440309435 9.053440309435 3 45 45 135 6075
561	10193712 85 3659 855800 0.053440309435 9.053440309435 3 45 45 135 6075
562	10193797 4251 1632 110038 0.024 1.199 236 0 0 0 0
564	10198048 41840 1632 949721 0.024 9.999 2226 0 0 0 0
570	10239888 42452 3708 949721 0.054 9.999 1990 1 1990 1981045 2628846715
583	10282340 10 0 0 0 0 1 1 1 1 1
589	10282350 85 1348 852407 0.019660798032 9.019660798032 3 44 44 132 5808
592	10282435 85 1348 852407 0.019660798032 9.019660798032 3 45 45 135 6075
593	10282520 85 1351 852410 0.019660798032 9.019660798032 3 45 45 135 6075
596	10282605 36590 1366 949822 0.02 10 1997 0 0 0 0
602	10319195 41474 1366 949822 0.02 10 1997 1 1997 1995003 2656678995
615	10360669 10 0 0 0 0 1 1 1 1 1
621	10360679 85 3169 855121 0.046595396413 9.046595396413 3 44 44 132 5808
624	10360764 85 3169 855121 0.046595396413 9.046595396413 3 45 45 135 6075
625	10360849 201 3172 856048 0.046595396413 9.056 9 14 45 282 10338
626	10361050 149641 1478 949850 0.021 10 7983 0 0 0 0
627	10510691 110 3516 856044 0.051 9.056 6 0 0 0 0
628	10510801 149432 1478 949850 0.021 10 7971 0 0 0 0
632	10660233 102 1564 3292 0.023 0.048 6 1 6 21 91
647	10660335 10 0 0 0 0 1 1 1 1 1
653	10660345 85 3844 856022 0.055913616046 9.055913616046 3 44 44 132 5808
656	10660430 85 3844 856022 0.055913616046 9.055913616046 3 45 45 135 6075
657	10660515 16560 3847 949829 0.055913616046 10 897 0 45 247 7411
658	10677075 199720 1707 949853 0.025 10 10660 0 0 0 0
659	10876795 16471 28093 949825 0.315 10 894 0 0 0 0
660	10893266 162854 1707 949853 0.025 10 8686 0 0 0 0
664	11056120 18006 2446 911918 0.036 9.617 882 1 882 389403 229098765
665	11074126 3832 1866 93369 0.027 1.017 198 1 198 19701 2607099
679	11077958 10 0 0 0 0 1 1 1 1 1
685	11077968 85 6239 858916 0.083428886256 9.083428886256 3 44 44 132 5808
688	11078053 85 6239 858916 0.083428886256 9.083428886256 3 45 45 135 6075
689	11078138 85 6242 858919 0.083428886256 9.083428886256 3 45 45 135 6075
692	11078223 37487 6292 949726 0.084 9.999 1984 0 0 0 0
698	11115710 42332 6292 949726 0.084 9.999 1984 1 1984 1969120 2605145760
711	11158042 10 0 0 0 0 1 1 1 1 1
717	11158052 85 2226 853765 0.032752273618 9.032752273618 3 44 44 132 5808
720	11158137 85 2226 853765 0.032752273618 9.032752273618 3 45 45 135 6075
721	11158222 85 2229 853768 0.032752273618 9.032752273618 3 45 45 135 6075
724	11158307 37655 2250 949573 0.033 9.998 1994 0 0 0 0
730	11195962 42530 2250 949573 0.033 9.998 1994 1 1994 1989015 2644726945
743	11238492 10 0 0 0 0 1 1 1 1 1
749	11238502 85 4958 857385 0.068834142487 9.068834142487 3 44 44 132 5808
752	11238587 85 4958 857385 0.068834142487 9.068834142487 3 45 45 135 6075
753	11238672 85 4961 857388 0.068834142487 9.068834142487 3 45 45 135 6075
756	11238757 37538 4995 949729 0.069 9.999 1987 0 0 0 0
762	11276295 42392 4995 949729 0.069 9.999 1987 1 1987 1975078 2616978350
775	11318687 10 0 0 0 0 1 1 1 1 1
781	11318697 85 6580 859298 0.086610205313 9.086610205313 3 44 44 132 5808
784	11318782 85 6580 859298 0.086610205313 9.086610205313 3 45 45 135 6075
785	11318867 85 6583 859301 0.086610205313 9.086610205313 3 45 45 135 6075
786	11318952 224827 1629 949847 0.024 10 11910 0 0 0 0
788	11543779 262295 1629 949847 0.024 10 13893 0 0 0 0
794	11806074 42310 6618 949497 0.087 9.997 1983 1 1983 1967136 2601209504
807	11848384 10 0 0 0 0 1 1 1 1 1
813	11848394 85 1915 853317 0.028524626123 9.028524626123 3 44 44 132 5808
816	11848479 85 1915 853317 0.028524626123 9.028524626123 3 45 45 135 6075
817	11848564 201 1918 854260 0.028524626123 9.038 9 23 45 282 9690
818	11848765 446228 1704 949885 0.025 10 23827 0 0 0 0
819	12294993 110 2254 854256 0.033 9.038 6 0 0 0 0
820	12295103 446101 1704 949885 0.025 10 23820 0 0 0 0
825	12741204 17 1864 1864 0.027 0.027 1 1 1 1 1
839	12741221 10 0 0 0 0 1 1 1 1 1
845	12741231 85 1188 852130 0.016661029886 9.016661029886 3 44 44 132 5808
848	12741316 85 1188 852130 0.016661029886 9.016661029886 3 45 45 135 6075
849	12741401 1699 1191 941518 0.016661029886 9.916 89 0 45 262 7210
850	12743100 165769 1343 949877 0.019 10 8902 0 0 0 0
851	12908869 1612 8880 941514 0.111 9.916 86 0 0 0 0
852	12910481 163997 1214 949877 0.017 10 8804 0 0 0 0
856	13074478 204 5243 8505 0.072 0.107 12 1 12 78 650
871	13074682 10 0 0 0 0 1 1 1 1 1
877	13074692 82 5158 857639 0.07167949236 9.07167949236 3 44 44 132 5808
880	13074774 82 5158 857639 0.07167949236 9.07167949236 3 45 45 135 6075
881	13074856 253 5161 859167 0.07167949236 9.086 12 3 45 288 9558
882	13075109 327 5467 859092 0.074 9.085 18 0 0 0 0
883	13075436 165 5592 859163 0.076 9.086 9 0 0 0 0
884	13075601 165 5213 858765 0.072 9.082 9 0 0 0 0
903	13075766 10 0 0 0 0 1 1 1 1 1
909	13075776 85 1569 852796 0.023988382854 9.023988382854 3 44 44 132 5808
912	13075861 85 1569 852796 0.023988382854 9.023988382854 3 45 45 135 6075
913	13075946 201 1572 853805 0.023988382854 9.033 9 19 45 282 9858
914	13076147 220 1818 853720 0.026 9.032 12 0 0 0 0
915	13076367 110 1893 853801 0.028 9.033 6 0 0 0 0
916	13076477 110 1622 853351 0.024 9.029 6 0 0 0 0
935	13076587 10 0 0 0 0 1 1 1 1 1
941	13076597 85 1517 852706 0.022310547896 9.022310547896 3 44 44 132 5808
944	13076682 85 1517 852706 0.022310547896 9.022310547896 3 45 45 135 6075
945	13076767 85 1520 852709 0.022310547896 9.022310547896 3 45 45 135 6075
948	13076852 37690 1555 949581 0.023 9.998 1996 0 0 0 0
955	13114542 42571 1555 949581 0.023 9.998 1996 1 1996 1993006 2652690986
967	13157113 10 0 0 0 0 1 1 1 1 1
973	13157123 85 2376 854017 0.035430226282 9.035430226282 3 44 44 132 5808
976	13157208 85 2376 854017 0.035430226282 9.035430226282 3 45 45 135 6075
977	13157293 85 2379 854020 0.035430226282 9.035430226282 3 45 45 135 6075
980	13157378 37638 2433 949402 0.036 9.996 1993 0 0 0 0
987	13195016 42510 2433 949402 0.036 9.996 1993 1 1993 1987021 2640750909
999	13237526 10 0 0 0 0 1 1 1 1 1
1479	13237536 94 1185 852127 0.016661029886 9.016661029886 3 7504 7504 22512 168930048
1480	13237630 94 1185 852127 0.016661029886 9.016661029886 3 7504 7504 22512 168930048
1482	13237724 85 1185 852127 0.016661029886 9.016661029886 3 0 0 0 0
1493	13237809 85 1185 852127 0.016661029886 9.016661029886 3 0 0 0 0
1503	13237894 94 1345 852404 0.019660798032 9.019660798032 3 7504 7504 22512 168930048
1504	13237988 94 1345 852404 0.019660798032 9.019660798032 3 7504 7504 22512 168930048
1506	13238082 85 1345 852404 0.019660798032 9.019660798032 3 0 0 0 0
1517	13238167 85 1345 852404 0.019660798032 9.019660798032 3 0 0 0 0
1527	13238252 94 1514 852703 0.022310547896 9.022310547896 3 7504 7504 22512 168930048
1528	13238346 94 1514 852703 0.022310547896 9.022310547896 3 7504 7504 22512 168930048
1530	13238440 85 1514 852703 0.022310547896 9.022310547896 3 0 0 0 0
1541	13238525 85 1514 852703 0.022310547896 9.022310547896 3 0 0 0 0
1551	13238610 94 1522 852710 0.022555459228 9.022555459228 3 7504 7504 22512 168930048
1552	13238704 94 1522 852710 0.022555459228 9.022555459228 3 7504 7504 22512 168930048
1554	13238798 85 1522 852710 0.022555459228 9.022555459228 3 0 0 0 0
1565	13238883 85 1522 852710 0.022555459228 9.022555459228 3 0 0 0 0
1575	13238968 94 1566 852793 0.023988382854 9.023988382854 3 7504 7504 22512 168930048
1576	13239062 94 1566 852793 0.023988382854 9.023988382854 3 7504 7504 22512 168930048
1578	13239156 85 1566 852793 0.023988382854 9.023988382854 3 0 0 0 0
1589	13239241 85 1566 852793 0.023988382854 9.023988382854 3 0 0 0 0
1599	13239326 94 1710 852999 0.025952952534 9.025952952534 3 7504 7504 22512 168930048
1600	13239420 94 1710 852999 0.025952952534 9.025952952534 3 7504 7504 22512 168930048
1602	13239514 85 1710 852999 0.025952952534 9.025952952534 3 0 0 0 0
1613	13239599 85 1710 852999 0.025952952534 9.025952952534 3 0 0 0 0
1623	13239684 94 1912 853314 0.028524626123 9.028524626123 3 7504 7504 22512 168930048
1624	13239778 94 1912 853314 0.028524626123 9.028524626123 3 7504 7504 22512 168930048
1626	13239872 85 1912 853314 0.028524626123 9.028524626123 3 0 0 0 0
1637	13239957 85 1912 853314 0.028524626123 9.028524626123 3 0 0 0 0
1647	13240042 94 2223 853762 0.032752273618 9.032752273618 3 7504 7504 22512 168930048
1648	13240136 94 2223 853762 0.032752273618 9.032752273618 3 7504 7504 22512 168930048
1650	13240230 85 2223 853762 0.032752273618 9.032752273618 3 0 0 0 0
1661	13240315 85 2223 853762 0.032752273618 9.032752273618 3 0 0 0 0
1671	13240400 94 2373 854014 0.035430226282 9.035430226282 3 7504 7504 22512 168930048
1672	13240494 94 2373 854014 0.035430226282 9.035430226282 3 7504 7504 22512 168930048
1674	13240588 85 2373 854014 0.035430226282 9.035430226282 3 0 0 0 0
1685	13240673 85 2373 854014 0.035430226282 9.035430226282 3 0 0 0 0
1695	13240758 94 2531 854224 0.037729873816 9.037729873816 3 7504 7504 22512 168930048
1696	13240852 94 2531 854224 0.037729873816 9.037729873816 3 7504 7504 22512 168930048
1698	13240946 85 2531 854224 0.037729873816 9.037729873816 3 0 0 0 0
1709	13241031 85 2531 854224 0.037729873816 9.037729873816 3 0 0 0 0
1719	13241116 94 3166 855118 0.046595396413 9.046595396413 3 7504 7504 22512 168930048
1720	13241210 94 3166 855118 0.046595396413 9.046595396413 3 7504 7504 22512 168930048
1722	13241304 85 3166 855118 0.046595396413 9.046595396413 3 0 0 0 0
1733	13241389 85 3166 855118 0.046595396413 9.046595396413 3 0 0 0 0
1743	13241474 94 3653 855794 0.053440309435 9.053440309435 3 7504 7504 22512 168930048
1744	13241568 94 3653 855794 0.053440309435 9.053440309435 3 7504 7504 22512 168930048
1746	13241662 85 3653 855794 0.053440309435 9.053440309435 3 0 0 0 0
1757	13241747 85 3653 855794 0.053440309435 9.053440309435 3 0 0 0 0
1767	13241832 91 3661 855801 0.05394782705 9.05394782705 3 7504 7504 22512 168930048
1768	13241923 91 3661 855801 0.05394782705 9.05394782705 3 7504 7504 22512 168930048
1770	13242014 82 3661 855801 0.05394782705 9.05394782705 3 0 0 0 0
1781	13242096 82 3661 855801 0.05394782705 9.05394782705 3 0 0 0 0
1791	13242178 94 3841 856019 0.055913616046 9.055913616046 3 7504 7504 22512 168930048
1792	13242272 94 3841 856019 0.055913616046 9.055913616046 3 7504 7504 22512 168930048
1794	13242366 85 3841 856019 0.055913616046 9.055913616046 3 0 0 0 0
1805	13242451 85 3841 856019 0.055913616046 9.055913616046 3 0 0 0 0
1815	13242536 94 4133 856334 0.058808041334 9.058808041334 3 7504 7504 22512 168930048
1816	13242630 94 4133 856334 0.058808041334 9.058808041334 3 7504 7504 22512 168930048
1818	13242724 85 4133 856334 0.058808041334 9.058808041334 3 0 0 0 0
1829	13242809 85 4133 856334 0.058808041334 9.058808041334 3 0 0 0 0
1839	13242894 94 4270 856523 0.060918334927 9.060918334927 3 7504 7504 22512 168930048
1840	13242988 94 4270 856523 0.060918334927 9.060918334927 3 7504 7504 22512 168930048
1842	13243082 85 4270 856523 0.060918334927 9.060918334927 3 0 0 0 0
1853	13243167 85 4270 856523 0.060918334927 9.060918334927 3 0 0 0 0
1863	13243252 94 4733 857120 0.066956260251 9.066956260251 3 7504 7504 22512 168930048
1864	13243346 94 4733 857120 0.066956260251 9.066956260251 3 7504 7504 22512 168930048
1866	13243440 85 4733 857120 0.066956260251 9.066956260251 3 0 0 0 0
1877	13243525 85 4733 857120 0.066956260251 9.066956260251 3 0 0 0 0
1887	13243610 94 4955 857382 0.068834142487 9.068834142487 3 7504 7504 22512 168930048
1888	13243704 94 4955 857382 0.068834142487 9.068834142487 3 7504 7504 22512 168930048
1890	13243798 85 4955 857382 0.068834142487 9.068834142487 3 0 0 0 0
1901	13243883 85 4955 857382 0.068834142487 9.068834142487 3 0 0 0 0
1911	13243968 94 5030 857463 0.069116189484 9.069116189484 3 7504 7504 22512 168930048
1912	13244062 94 5030 857463 0.069116189484 9.069116189484 3 7504 7504 22512 168930048
1914	13244156 85 5030 857463 0.069116189484 9.069116189484 3 0 0 0 0
1925	13244241 85 5030 857463 0.069116189484 9.069116189484 3 0 0 0 0
1935	13244326 91 5155 857636 0.07167949236 9.07167949236 3 7504 7504 22512 168930048
1936	13244417 91 5155 857636 0.07167949236 9.07167949236 3 7504 7504 22512 168930048
1938	13244508 82 5155 857636 0.07167949236 9.07167949236 3 0 0 0 0
1949	13244590 82 5155 857636 0.07167949236 9.07167949236 3 0 0 0 0
1959	13244672 94 5476 858013 0.074373740533 9.074373740533 3 7504 7504 22512 168930048
1960	13244766 94 5476 858013 0.074373740533 9.074373740533 3 7504 7504 22512 168930048
1962	13244860 85 5476 858013 0.074373740533 9.074373740533 3 0 0 0 0
1973	13244945 85 5476 858013 0.074373740533 9.074373740533 3 0 0 0 0
1983	13245030 91 5557 858105 0.07505697578 9.07505697578 3 7504 7504 22512 168930048
1984	13245121 91 5557 858105 0.07505697578 9.07505697578 3 7504 7504 22512 168930048
1986	13245212 82 5557 858105 0.07505697578 9.07505697578 3 0 0 0 0
1997	13245294 82 5557 858105 0.07505697578 9.07505697578 3 0 0 0 0
2007	13245376 91 6158 858821 0.08215464002 9.08215464002 3 7504 7504 22512 168930048
2008	13245467 91 6158 858821 0.08215464002 9.08215464002 3 7504 7504 22512 168930048
2010	13245558 82 6158 858821 0.08215464002 9.08215464002 3 0 0 0 0
2021	13245640 82 6158 858821 0.08215464002 9.08215464002 3 0 0 0 0
2031	13245722 94 6236 858913 0.083428886256 9.083428886256 3 7504 7504 22512 168930048
2032	13245816 94 6236 858913 0.083428886256 9.083428886256 3 7504 7504 22512 168930048
2034	13245910 85 6236 858913 0.083428886256 9.083428886256 3 0 0 0 0
2045	13245995 85 6236 858913 0.083428886256 9.083428886256 3 0 0 0 0
2055	13246080 94 6577 859295 0.086610205313 9.086610205313 3 7504 7504 22512 168930048
2056	13246174 94 6577 859295 0.086610205313 9.086610205313 3 7504 7504 22512 168930048
2058	13246268 85 6577 859295 0.086610205313 9.086610205313 3 0 0 0 0
2069	13246353 85 6577 859295 0.086610205313 9.086610205313 3 0 0 0 0
