file 12012277 1588964955                                        
version 2
run CAIN-49-20200508-15:57:30-11537
attr configname CAIN
attr datetime 20200508-15:57:30
attr dist 200
attr experiment CAIN
attr extAllocType "\"FULL_ALLOC\""
attr inifile omnetpp.ini
attr iterationvars "$numUe=20, $pwr=-50, $dist=200, $mob=\"./movements/RPGM-0.5.movements\", $extAllocType=\"FULL_ALLOC\""
attr iterationvars2 "$numUe=20, $pwr=-50, $dist=200, $mob=\"./movements/RPGM-0.5.movements\", $extAllocType=\"FULL_ALLOC\", $repetition=4"
attr measurement "$numUe=20, $pwr=-50, $dist=200, $mob=\"./movements/RPGM-0.5.movements\", $extAllocType=\"FULL_ALLOC\""
attr mob "\"./movements/RPGM-0.5.movements\""
attr network lte.simulations.networks.CAIN
attr numUe 20
attr processid 11537
attr pwr -50
attr repetition 4
attr replication #4
attr resultdir results
attr runnumber 49
attr seedset 4
param **.**.amcMode "\"AUTO\""
param **.amcMode "\"D2D\""
param **.cainNetwork true
param **.channelControl.alpha 1.0
param **.channelControl.carrierFrequency 2100e+6Hz
param **.channelControl.pMax 10W
param **.d2dCqi 7
param **.deployer.numRbDl 50
param **.deployer.numRbUl 50
param **.distThresh ${dist=200}
param **.fbDelay 1
param **.feedbackComputation "xmldoc(\"config_channel.xml\")"
param **.mobility.constraintAreaMaxX 1000m
param **.mobility.constraintAreaMaxY 1000m
param **.mobility.constraintAreaMaxZ 0m
param **.mobility.constraintAreaMinX 0m
param **.mobility.constraintAreaMinY 0m
param **.mobility.constraintAreaMinZ 0m
param **.nic.phy.channelModel "xmldoc(\"config_channel.xml\")"
param **.numBands 50
param **.pwrThresh "${pwr= -50}"
param **.qtdThresh 3
param **.rbAllocationType "\"localized\""
param **.routingRecorder.enabled false
param **.tcpApp[*].tClose -1s
param **.ueD2DTx[*].mobility.changeAngleBy "normal(0deg, 30deg)"
param **.ueD2DTx[*].mobility.changeInterval "normal(5s, 0.1s)"
param **.ueD2DTx[*].mobility.nodeId -1
param **.ueD2DTx[*].mobility.speed "normal(2mps, 0.01mps)"
param **.ueD2DTx[*].mobility.traceFile "${mob=\"./movements/RWP-0.0.movements\",\"./movements/RWP-0.5.movements\",\"./movements/RPGM-0.0.movements\",\"./movements/RPGM-0.5.movements\",\"./movements/RWPRPGM-0.0.movements\",\"./movements/RWPRPGM-0.5.movements\"}"
param **.ueD2DTx[*].mobilityType "\"BonnMotionMobility\""
param **.usePreconfiguredTxParams false
param *.eNodeB*.numX2Apps 1
param *.eNodeB*.x2App[*].server.localPort "5000 + ancestorIndex(1)"
param *.eNodeB.d2dCapable false
param *.eNodeB.mobility.initFromDisplayString false
param *.eNodeB.mobility.initialX 300m
param *.eNodeB.mobility.initialY 300m
param *.eNodeB.nic.phy.enableD2DCqiReporting true
param *.eNodeB.txPower 19952.62315mw
param *.eNodeB.x2App[0].client.connectAddress "\"eNodeB1%x2ppp0\""
param *.eNodeB1.d2dCapable true
param *.eNodeB1.mobility.initFromDisplayString false
param *.eNodeB1.mobility.initialX 700m
param *.eNodeB1.mobility.initialY 300m
param *.eNodeB1.nic.phy.enableD2DCqiReporting true
param *.eNodeB1.txPower 19952.62315mw
param *.eNodeB1.x2App[0].client.connectAddress "\"eNodeB%x2ppp0\""
param *.extCell[*].bandAllocationType "${extAllocType=\"FULL_ALLOC\",\"RANDOM_ALLOC\",\"CONTIGUOUS_ALLOC\"}"
param *.extCell[*].bandUtilization 0.5
param *.extCell[*].txDirection "\"ANISOTROPIC\""
param *.extCell[*].txPower 20
param *.extCell[0].position_x 100m
param *.extCell[0].position_y 600m
param *.extCell[0].txAngle 315
param *.extCell[1].position_x 600m
param *.extCell[1].position_y 600m
param *.extCell[1].txAngle 225
param *.numExtCells 2
param *.numUeCell 0
param *.numUeD2DRx 1
param *.numUeD2DTx 1
param *.ue*.macCellId 1
param *.ue*.masterId 1
param *.ue*.mobility.initFromDisplayString false
param *.ue*[0].macCellId 1
param *.ue*[0].masterId 1
param *.ue*[0].mobility.initFromDisplayString false
param *.ueD2D*.numTcpApps 1
param *.ueD2D*[*].d2dCapable true
param *.ueD2D*[0].d2dCapable false
param *.ueD2D*[0].numTcpApps 1
param *.ueD2DRx[0].mobility.initialX 310m
param *.ueD2DRx[0].mobility.initialY 350m
param *.ueD2DRx[0].tcpApp[*].localPort 1000
param *.ueD2DRx[0].tcpApp[*].typename "\"TCPSinkApp\""
param *.ueD2DTx*.nic.d2dPeerAddresses "\"ueD2DTx[1]\""
param *.ueD2DTx*.tcpApp[*].connectAddress "\"ueD2DTx[0]\""
param *.ueD2DTx*.tcpApp[*].localAddress "\"ueD2DTx\""
param *.ueD2DTx*.tcpApp[*].localPort 1000
param *.ueD2DTx*.tcpApp[*].sendBytes 1GiB
param *.ueD2DTx*.tcpApp[*].typename "\"TCPSessionApp\""
param *.ueD2DTx*.tcpApp[0].active true
param *.ueD2DTx*.tcpApp[0].connectPort 1000
param *.ueD2DTx*.tcpApp[0].tOpen uniform(0.010s,0.1s)
param *.ueD2DTx*.tcpApp[0].tSend uniform(0.15s,0.5s)
param *.ueD2DTx[0].mobility.initialX 290m
param *.ueD2DTx[0].mobility.initialY 350m
param *.ueD2DTx[0].tcpApp[*].localPort 1000
param *.ueD2DTx[0].tcpApp[*].sendBytes 1GiB
param *.ueD2DTx[0].tcpApp[*].typename "\"TCPSessionApp\""
param *.ueD2DTx[0].tcpApp[0].active true
param *.ueD2DTx[0].tcpApp[0].connectAddress "\"ueD2DRx[0]\""
param *.ueD2DTx[0].tcpApp[0].connectPort 1000
param *.ueD2DTx[0].tcpApp[0].localAddress "\"ueD2DTx[0]\""
param *.ueD2DTx[0].tcpApp[0].tOpen uniform(0.010s,0.1s)
param *.ueD2DTx[0].tcpApp[0].tSend uniform(0.15s,0.5s)
param *.ueD2DTx[1].mobility.initialX 690m
param *.ueD2DTx[1].mobility.initialY 250m

vector 8  CAIN.server.ppp[0].queue  queueLength:vector  ETV
attr interpolationmode  sample-hold
attr title  "queue length, vector"
vector 9  CAIN.server.ppp[0].ppp  txState:vector  ETV
attr interpolationmode  sample-hold
attr title  "tx state, vector"
vector 24  CAIN.router.ppp[0].queue  queueLength:vector  ETV
attr interpolationmode  sample-hold
attr title  "queue length, vector"
vector 25  CAIN.router.ppp[0].ppp  txState:vector  ETV
attr interpolationmode  sample-hold
attr title  "tx state, vector"
vector 35  CAIN.router.ppp[1].queue  queueLength:vector  ETV
attr interpolationmode  sample-hold
attr title  "queue length, vector"
vector 36  CAIN.router.ppp[1].ppp  txState:vector  ETV
attr interpolationmode  sample-hold
attr title  "tx state, vector"
vector 56  CAIN.pgw.ppp[0].queue  queueLength:vector  ETV
attr interpolationmode  sample-hold
attr title  "queue length, vector"
vector 57  CAIN.pgw.ppp[0].ppp  txState:vector  ETV
attr interpolationmode  sample-hold
attr title  "tx state, vector"
vector 67  CAIN.pgw.ppp[1].queue  queueLength:vector  ETV
attr interpolationmode  sample-hold
attr title  "queue length, vector"
vector 68  CAIN.pgw.ppp[1].ppp  txState:vector  ETV
attr interpolationmode  sample-hold
attr title  "tx state, vector"
vector 78  CAIN.pgw.pppInterface.queue  queueLength:vector  ETV
attr interpolationmode  sample-hold
attr title  "queue length, vector"
vector 79  CAIN.pgw.pppInterface.ppp  txState:vector  ETV
attr interpolationmode  sample-hold
attr title  "tx state, vector"
vector 120  CAIN.eNodeB.pppIf.queue  queueLength:vector  ETV
attr interpolationmode  sample-hold
attr title  "queue length, vector"
vector 121  CAIN.eNodeB.pppIf.ppp  txState:vector  ETV
attr interpolationmode  sample-hold
attr title  "tx state, vector"
vector 131  CAIN.eNodeB.x2ppp[0].queue  queueLength:vector  ETV
attr interpolationmode  sample-hold
attr title  "queue length, vector"
vector 132  CAIN.eNodeB.x2ppp[0].ppp  txState:vector  ETV
attr interpolationmode  sample-hold
attr title  "tx state, vector"
vector 178  CAIN.eNodeB1.pppIf.queue  queueLength:vector  ETV
attr interpolationmode  sample-hold
attr title  "queue length, vector"
vector 179  CAIN.eNodeB1.pppIf.ppp  txState:vector  ETV
attr interpolationmode  sample-hold
attr title  "tx state, vector"
vector 189  CAIN.eNodeB1.x2ppp[0].queue  queueLength:vector  ETV
attr interpolationmode  sample-hold
attr title  "queue length, vector"
vector 190  CAIN.eNodeB1.x2ppp[0].ppp  txState:vector  ETV
attr interpolationmode  sample-hold
attr title  "tx state, vector"
vector 231  CAIN.ueD2DTx[0].nic.phy  servingCell:vector  ETV
attr source  servingCell
attr title  "ID of the serving eNodeB for the UE, vector"
attr unit  ""
vector 263  CAIN.ueD2DTx[1].nic.phy  servingCell:vector  ETV
attr source  servingCell
attr title  "ID of the serving eNodeB for the UE, vector"
attr unit  ""
vector 295  CAIN.ueD2DTx[2].nic.phy  servingCell:vector  ETV
attr source  servingCell
attr title  "ID of the serving eNodeB for the UE, vector"
attr unit  ""
vector 327  CAIN.ueD2DTx[3].nic.phy  servingCell:vector  ETV
attr source  servingCell
attr title  "ID of the serving eNodeB for the UE, vector"
attr unit  ""
vector 359  CAIN.ueD2DTx[4].nic.phy  servingCell:vector  ETV
attr source  servingCell
attr title  "ID of the serving eNodeB for the UE, vector"
attr unit  ""
vector 391  CAIN.ueD2DTx[5].nic.phy  servingCell:vector  ETV
attr source  servingCell
attr title  "ID of the serving eNodeB for the UE, vector"
attr unit  ""
vector 423  CAIN.ueD2DTx[6].nic.phy  servingCell:vector  ETV
attr source  servingCell
attr title  "ID of the serving eNodeB for the UE, vector"
attr unit  ""
vector 455  CAIN.ueD2DTx[7].nic.phy  servingCell:vector  ETV
attr source  servingCell
attr title  "ID of the serving eNodeB for the UE, vector"
attr unit  ""
vector 487  CAIN.ueD2DTx[8].nic.phy  servingCell:vector  ETV
attr source  servingCell
attr title  "ID of the serving eNodeB for the UE, vector"
attr unit  ""
vector 519  CAIN.ueD2DTx[9].nic.phy  servingCell:vector  ETV
attr source  servingCell
attr title  "ID of the serving eNodeB for the UE, vector"
attr unit  ""
vector 551  CAIN.ueD2DTx[10].nic.phy  servingCell:vector  ETV
attr source  servingCell
attr title  "ID of the serving eNodeB for the UE, vector"
attr unit  ""
vector 583  CAIN.ueD2DTx[11].nic.phy  servingCell:vector  ETV
attr source  servingCell
attr title  "ID of the serving eNodeB for the UE, vector"
attr unit  ""
vector 615  CAIN.ueD2DTx[12].nic.phy  servingCell:vector  ETV
attr source  servingCell
attr title  "ID of the serving eNodeB for the UE, vector"
attr unit  ""
vector 647  CAIN.ueD2DTx[13].nic.phy  servingCell:vector  ETV
attr source  servingCell
attr title  "ID of the serving eNodeB for the UE, vector"
attr unit  ""
vector 679  CAIN.ueD2DTx[14].nic.phy  servingCell:vector  ETV
attr source  servingCell
attr title  "ID of the serving eNodeB for the UE, vector"
attr unit  ""
vector 711  CAIN.ueD2DTx[15].nic.phy  servingCell:vector  ETV
attr source  servingCell
attr title  "ID of the serving eNodeB for the UE, vector"
attr unit  ""
vector 743  CAIN.ueD2DTx[16].nic.phy  servingCell:vector  ETV
attr source  servingCell
attr title  "ID of the serving eNodeB for the UE, vector"
attr unit  ""
vector 775  CAIN.ueD2DTx[17].nic.phy  servingCell:vector  ETV
attr source  servingCell
attr title  "ID of the serving eNodeB for the UE, vector"
attr unit  ""
vector 807  CAIN.ueD2DTx[18].nic.phy  servingCell:vector  ETV
attr source  servingCell
attr title  "ID of the serving eNodeB for the UE, vector"
attr unit  ""
vector 839  CAIN.ueD2DTx[19].nic.phy  servingCell:vector  ETV
attr source  servingCell
attr title  "ID of the serving eNodeB for the UE, vector"
attr unit  ""
vector 863  CAIN.eNodeB.sctp  "Throughput of Association 3"  ETV
vector 885  CAIN.eNodeB1.sctp  "Throughput of Association 4"  ETV
vector 907  CAIN.eNodeB.sctp  "Throughput of Association 1"  ETV
vector 927  CAIN.eNodeB.sctp  "Fast Recovery State 1:10.0.5.2"  ETV
vector 956  CAIN.eNodeB1.sctp  "Throughput of Association 2"  ETV
vector 976  CAIN.eNodeB1.sctp  "Fast Recovery State 2:10.0.5.1"  ETV
vector 128  CAIN.eNodeB.x2ppp[0].queue  rcvdPk:vector(packetBytes)  ETV
attr interpolationmode  none
attr title  "received packets, vector(packetBytes)"
vector 130  CAIN.eNodeB.x2ppp[0].queue  queueingTime:vector  ETV
attr interpolationmode  none
attr title  "queueing time, vector"
vector 186  CAIN.eNodeB1.x2ppp[0].queue  rcvdPk:vector(packetBytes)  ETV
attr interpolationmode  none
attr title  "received packets, vector(packetBytes)"
vector 188  CAIN.eNodeB1.x2ppp[0].queue  queueingTime:vector  ETV
attr interpolationmode  none
attr title  "queueing time, vector"
vector 137  CAIN.eNodeB.x2ppp[0].ppp  rcvdPkFromHL:vector(packetBytes)  ETV
attr interpolationmode  none
attr source  packetReceivedFromUpper
attr title  "packets received from higher layer, vector(packetBytes)"
vector 133  CAIN.eNodeB.x2ppp[0].ppp  txPk:vector(packetBytes)  ETV
attr interpolationmode  none
attr source  packetSentToLower
attr title  "packets transmitted, vector(packetBytes)"
vector 195  CAIN.eNodeB1.x2ppp[0].ppp  rcvdPkFromHL:vector(packetBytes)  ETV
attr interpolationmode  none
attr source  packetReceivedFromUpper
attr title  "packets received from higher layer, vector(packetBytes)"
vector 191  CAIN.eNodeB1.x2ppp[0].ppp  txPk:vector(packetBytes)  ETV
attr interpolationmode  none
attr source  packetSentToLower
attr title  "packets transmitted, vector(packetBytes)"
vector 192  CAIN.eNodeB1.x2ppp[0].ppp  rxPkOk:vector(packetBytes)  ETV
attr interpolationmode  none
attr source  rxPkOk
attr title  "packets received OK, vector(packetBytes)"
vector 196  CAIN.eNodeB1.x2ppp[0].ppp  passedUpPk:vector(packetBytes)  ETV
attr interpolationmode  none
attr source  packetSentToUpper
attr title  "packets passed to higher layer, vector(packetBytes)"
vector 134  CAIN.eNodeB.x2ppp[0].ppp  rxPkOk:vector(packetBytes)  ETV
attr interpolationmode  none
attr source  rxPkOk
attr title  "packets received OK, vector(packetBytes)"
vector 138  CAIN.eNodeB.x2ppp[0].ppp  passedUpPk:vector(packetBytes)  ETV
attr interpolationmode  none
attr source  packetSentToUpper
attr title  "packets passed to higher layer, vector(packetBytes)"
vector 1005  CAIN.eNodeB1.sctp  "Throughput of Association 4"  ETV
vector 882  CAIN.eNodeB1.sctp  "Peer Rwnd 4"  ETV
vector 1025  CAIN.eNodeB1.sctp  "Fast Recovery State 5:10.0.4.1"  ETV
vector 1052  CAIN.eNodeB1.sctp  "Fast Recovery State 5:10.0.2.2"  ETV
vector 1079  CAIN.eNodeB1.sctp  "Fast Recovery State 5:10.0.5.1"  ETV
vector 1108  CAIN.eNodeB.sctp  "Throughput of Association 3"  ETV
vector 860  CAIN.eNodeB.sctp  "Peer Rwnd 3"  ETV
vector 1128  CAIN.eNodeB.sctp  "Fast Recovery State 6:10.0.4.2"  ETV
vector 1155  CAIN.eNodeB.sctp  "Fast Recovery State 6:10.0.3.2"  ETV
vector 1182  CAIN.eNodeB.sctp  "Fast Recovery State 6:10.0.5.2"  ETV
vector 904  CAIN.eNodeB.sctp  "Peer Rwnd 1"  ETV
vector 1209  CAIN.eNodeB.sctp  "Fast Recovery State 1:10.0.4.2"  ETV
vector 1236  CAIN.eNodeB.sctp  "Fast Recovery State 1:10.0.3.2"  ETV
vector 953  CAIN.eNodeB1.sctp  "Peer Rwnd 2"  ETV
vector 1263  CAIN.eNodeB1.sctp  "Fast Recovery State 2:10.0.4.1"  ETV
vector 1290  CAIN.eNodeB1.sctp  "Fast Recovery State 2:10.0.2.2"  ETV
vector 1035  CAIN.eNodeB1.sctp  "Slow Start Threshold 5:10.0.2.2"  ETV
vector 1036  CAIN.eNodeB1.sctp  "Congestion Window 5:10.0.2.2"  ETV
vector 1037  CAIN.eNodeB1.sctp  "Bandwidth 5:10.0.2.2"  ETV
vector 1040  CAIN.eNodeB1.sctp  "HB Sent 5:10.0.2.2"  ETV
vector 1033  CAIN.eNodeB1.sctp  "RTO 5:10.0.2.2"  ETV
vector 1008  CAIN.eNodeB1.sctp  "Slow Start Threshold 5:10.0.4.1"  ETV
vector 1009  CAIN.eNodeB1.sctp  "Congestion Window 5:10.0.4.1"  ETV
vector 1010  CAIN.eNodeB1.sctp  "Bandwidth 5:10.0.4.1"  ETV
vector 1013  CAIN.eNodeB1.sctp  "HB Sent 5:10.0.4.1"  ETV
vector 1006  CAIN.eNodeB1.sctp  "RTO 5:10.0.4.1"  ETV
vector 1062  CAIN.eNodeB1.sctp  "Slow Start Threshold 5:10.0.5.1"  ETV
vector 1063  CAIN.eNodeB1.sctp  "Congestion Window 5:10.0.5.1"  ETV
vector 1064  CAIN.eNodeB1.sctp  "Bandwidth 5:10.0.5.1"  ETV
vector 1060  CAIN.eNodeB1.sctp  "RTO 5:10.0.5.1"  ETV
vector 1138  CAIN.eNodeB.sctp  "Slow Start Threshold 6:10.0.3.2"  ETV
vector 1139  CAIN.eNodeB.sctp  "Congestion Window 6:10.0.3.2"  ETV
vector 1140  CAIN.eNodeB.sctp  "Bandwidth 6:10.0.3.2"  ETV
vector 1143  CAIN.eNodeB.sctp  "HB Sent 6:10.0.3.2"  ETV
vector 1136  CAIN.eNodeB.sctp  "RTO 6:10.0.3.2"  ETV
vector 1111  CAIN.eNodeB.sctp  "Slow Start Threshold 6:10.0.4.2"  ETV
vector 1112  CAIN.eNodeB.sctp  "Congestion Window 6:10.0.4.2"  ETV
vector 1113  CAIN.eNodeB.sctp  "Bandwidth 6:10.0.4.2"  ETV
vector 1116  CAIN.eNodeB.sctp  "HB Sent 6:10.0.4.2"  ETV
vector 1109  CAIN.eNodeB.sctp  "RTO 6:10.0.4.2"  ETV
vector 1165  CAIN.eNodeB.sctp  "Slow Start Threshold 6:10.0.5.2"  ETV
vector 1166  CAIN.eNodeB.sctp  "Congestion Window 6:10.0.5.2"  ETV
vector 1167  CAIN.eNodeB.sctp  "Bandwidth 6:10.0.5.2"  ETV
vector 1163  CAIN.eNodeB.sctp  "RTO 6:10.0.5.2"  ETV
vector 916  CAIN.eNodeB.sctp  "HB ACK Sent 1:10.0.5.2"  ETV
vector 917  CAIN.eNodeB.sctp  "HB Received 1:10.0.5.2"  ETV
vector 965  CAIN.eNodeB1.sctp  "HB ACK Sent 2:10.0.5.1"  ETV
vector 966  CAIN.eNodeB1.sctp  "HB Received 2:10.0.5.1"  ETV
vector 1219  CAIN.eNodeB.sctp  "Slow Start Threshold 1:10.0.3.2"  ETV
vector 1220  CAIN.eNodeB.sctp  "Congestion Window 1:10.0.3.2"  ETV
vector 1221  CAIN.eNodeB.sctp  "Bandwidth 1:10.0.3.2"  ETV
vector 1224  CAIN.eNodeB.sctp  "HB Sent 1:10.0.3.2"  ETV
vector 1217  CAIN.eNodeB.sctp  "RTO 1:10.0.3.2"  ETV
vector 1192  CAIN.eNodeB.sctp  "Slow Start Threshold 1:10.0.4.2"  ETV
vector 1193  CAIN.eNodeB.sctp  "Congestion Window 1:10.0.4.2"  ETV
vector 1194  CAIN.eNodeB.sctp  "Bandwidth 1:10.0.4.2"  ETV
vector 1197  CAIN.eNodeB.sctp  "HB Sent 1:10.0.4.2"  ETV
vector 1190  CAIN.eNodeB.sctp  "RTO 1:10.0.4.2"  ETV
vector 910  CAIN.eNodeB.sctp  "Slow Start Threshold 1:10.0.5.2"  ETV
vector 911  CAIN.eNodeB.sctp  "Congestion Window 1:10.0.5.2"  ETV
vector 912  CAIN.eNodeB.sctp  "Bandwidth 1:10.0.5.2"  ETV
vector 908  CAIN.eNodeB.sctp  "RTO 1:10.0.5.2"  ETV
vector 1273  CAIN.eNodeB1.sctp  "Slow Start Threshold 2:10.0.2.2"  ETV
vector 1274  CAIN.eNodeB1.sctp  "Congestion Window 2:10.0.2.2"  ETV
vector 1275  CAIN.eNodeB1.sctp  "Bandwidth 2:10.0.2.2"  ETV
vector 1278  CAIN.eNodeB1.sctp  "HB Sent 2:10.0.2.2"  ETV
vector 1271  CAIN.eNodeB1.sctp  "RTO 2:10.0.2.2"  ETV
vector 1246  CAIN.eNodeB1.sctp  "Slow Start Threshold 2:10.0.4.1"  ETV
vector 1247  CAIN.eNodeB1.sctp  "Congestion Window 2:10.0.4.1"  ETV
vector 1248  CAIN.eNodeB1.sctp  "Bandwidth 2:10.0.4.1"  ETV
vector 1251  CAIN.eNodeB1.sctp  "HB Sent 2:10.0.4.1"  ETV
vector 1244  CAIN.eNodeB1.sctp  "RTO 2:10.0.4.1"  ETV
vector 959  CAIN.eNodeB1.sctp  "Slow Start Threshold 2:10.0.5.1"  ETV
vector 960  CAIN.eNodeB1.sctp  "Congestion Window 2:10.0.5.1"  ETV
vector 961  CAIN.eNodeB1.sctp  "Bandwidth 2:10.0.5.1"  ETV
vector 957  CAIN.eNodeB1.sctp  "RTO 2:10.0.5.1"  ETV
vector 1173  CAIN.eNodeB.sctp  "HB ACK Received 6:10.0.5.2"  ETV
vector 1164  CAIN.eNodeB.sctp  "RTT 6:10.0.5.2"  ETV
vector 1070  CAIN.eNodeB1.sctp  "HB ACK Received 5:10.0.5.1"  ETV
vector 1061  CAIN.eNodeB1.sctp  "RTT 5:10.0.5.1"  ETV
vector 1171  CAIN.eNodeB.sctp  "HB ACK Sent 6:10.0.5.2"  ETV
vector 1172  CAIN.eNodeB.sctp  "HB Received 6:10.0.5.2"  ETV
vector 1068  CAIN.eNodeB1.sctp  "HB ACK Sent 5:10.0.5.1"  ETV
vector 1069  CAIN.eNodeB1.sctp  "HB Received 5:10.0.5.1"  ETV
vector 967  CAIN.eNodeB1.sctp  "HB ACK Received 2:10.0.5.1"  ETV
vector 958  CAIN.eNodeB1.sctp  "RTT 2:10.0.5.1"  ETV
vector 918  CAIN.eNodeB.sctp  "HB ACK Received 1:10.0.5.2"  ETV
vector 909  CAIN.eNodeB.sctp  "RTT 1:10.0.5.2"  ETV
vector 96  CAIN.eNodeB.nic.mac  receivedPacketFromLowerLayer:vector(packetBytes)  ETV
attr interpolationmode  none
attr source  receivedPacketFromLowerLayer
vector 1305  CAIN.eNodeB.sctp  "SendQueue of Association 6"  ETV
vector 1168  CAIN.eNodeB.sctp  "TSN Sent 6:10.0.5.2"  ETV
vector 1175  CAIN.eNodeB.sctp  "Outstanding Bytes 6:10.0.5.2"  ETV
vector 848  CAIN.eNodeB.sctp  "Outstanding Bytes 3:Total"  ETV
vector 1174  CAIN.eNodeB.sctp  "Queued Sent Bytes 6:10.0.5.2"  ETV
vector 847  CAIN.eNodeB.sctp  "Queued Sent Bytes 3:Total"  ETV
vector 963  CAIN.eNodeB1.sctp  "TSN Received 2:10.0.5.1"  ETV
vector 939  CAIN.eNodeB1.sctp  "Queued Received Bytes 2:Total"  ETV
vector 935  CAIN.eNodeB1.sctp  "Advertised Receiver Window 2"  ETV
vector 944  CAIN.eNodeB1.sctp  "Number of Total Gap Blocks Stored 2"  ETV
vector 945  CAIN.eNodeB1.sctp  "Number of Revokable Gap Blocks Stored 2"  ETV
vector 946  CAIN.eNodeB1.sctp  "Number of Non-Revokable Gap Blocks Stored 2"  ETV
vector 947  CAIN.eNodeB1.sctp  "Number of Duplicate TSNs Stored 2"  ETV
vector 951  CAIN.eNodeB1.sctp  "Length of SACK Sent 2"  ETV
vector 948  CAIN.eNodeB1.sctp  "Number of Revokable Gap Blocks Sent 2"  ETV
vector 949  CAIN.eNodeB1.sctp  "Number of Non-Revokable Gap Blocks Sent 2"  ETV
vector 950  CAIN.eNodeB1.sctp  "Number of Duplicate TSNs Sent 2"  ETV
vector 955  CAIN.eNodeB1.sctp  "End to End Delay of Association 2"  ETV
vector 199  CAIN.eNodeB1.x2App[0].client  rcvdPk:vector(packetBytes)  ETV
attr interpolationmode  none
attr source  rcvdPk
attr title  "packets received, vector(packetBytes)"
vector 1304  CAIN.eNodeB.sctp  "Number of Gap Blocks in Last SACK of Association 6"  ETV
vector 849  CAIN.eNodeB.sctp  "Number of Revokable Gap Blocks in SACK 3"  ETV
vector 850  CAIN.eNodeB.sctp  "Number of Non-Revokable Gap Blocks in SACK 3"  ETV
vector 1185  CAIN.eNodeB.sctp  "TSN Acked CumAck 6:10.0.5.2"  ETV
vector 1151  CAIN.eNodeB.sctp  "Number of Gap Acked Chunks in Last SACK 6:10.0.3.2"  ETV
vector 1152  CAIN.eNodeB.sctp  "Number of Non-Revokable Gap Acked Chunks in Last SACK 6:10.0.3.2"  ETV
vector 1153  CAIN.eNodeB.sctp  "Number of Gap Missed Chunks in Last SACK 6:10.0.3.2"  ETV
vector 1124  CAIN.eNodeB.sctp  "Number of Gap Acked Chunks in Last SACK 6:10.0.4.2"  ETV
vector 1125  CAIN.eNodeB.sctp  "Number of Non-Revokable Gap Acked Chunks in Last SACK 6:10.0.4.2"  ETV
vector 1126  CAIN.eNodeB.sctp  "Number of Gap Missed Chunks in Last SACK 6:10.0.4.2"  ETV
vector 1178  CAIN.eNodeB.sctp  "Number of Gap Acked Chunks in Last SACK 6:10.0.5.2"  ETV
vector 1179  CAIN.eNodeB.sctp  "Number of Non-Revokable Gap Acked Chunks in Last SACK 6:10.0.5.2"  ETV
vector 1180  CAIN.eNodeB.sctp  "Number of Gap Missed Chunks in Last SACK 6:10.0.5.2"  ETV
vector 859  CAIN.eNodeB.sctp  "Arwnd in Last SACK 3"  ETV
vector 1187  CAIN.eNodeB.sctp  "TSN PseudoCumAck 6:10.0.5.2"  ETV
vector 1188  CAIN.eNodeB.sctp  "TSN RTXPseudoCumAck 6:10.0.5.2"  ETV
vector 1181  CAIN.eNodeB.sctp  "Partial Bytes Acked 6:10.0.5.2"  ETV
vector 1333  CAIN.ueD2DTx[16].tcp  tcpRcvQueueBytes  ETV
vector 1320  CAIN.ueD2DTx[16].tcp  "advertised window"  ETV
vector 1319  CAIN.ueD2DTx[16].tcp  "receive window"  ETV
vector 1322  CAIN.ueD2DTx[16].tcp  "sent ack"  ETV
vector 717  CAIN.ueD2DTx[16].nic.pdcpRrc  receivedPacketFromUpperLayer:vector(packetBytes)  ETV
attr interpolationmode  none
attr source  receivedPacketFromUpperLayer
vector 720  CAIN.ueD2DTx[16].nic.pdcpRrc  sentPacketToLowerLayer:vector(packetBytes)  ETV
attr interpolationmode  none
attr source  sentPacketToLowerLayer
vector 721  CAIN.ueD2DTx[16].nic.mac  receivedPacketFromUpperLayer:vector(packetBytes)  ETV
attr interpolationmode  none
attr source  receivedPacketFromUpperLayer
vector 724  CAIN.ueD2DTx[16].nic.mac  sentPacketToLowerLayer:vector(packetBytes)  ETV
attr interpolationmode  none
attr source  sentPacketToLowerLayer
vector 111  CAIN.eNodeB.nic.mac  racpkt:vector  ETV
attr interpolationmode  none
attr title  "eNB received racpkt message, vector"
vector 112  CAIN.eNodeB.nic.mac  racDistanceSignal:vector  ETV
attr interpolationmode  none
attr title  "Rac distance to enb, vector"
vector 113  CAIN.eNodeB.nic.mac  racServedDevsSignal:vector  ETV
attr interpolationmode  none
attr title  "# of devices served on rac arriavall, vector"
vector 98  CAIN.eNodeB.nic.mac  sentPacketToLowerLayer:vector(packetBytes)  ETV
attr interpolationmode  none
attr source  sentPacketToLowerLayer
vector 722  CAIN.ueD2DTx[16].nic.mac  receivedPacketFromLowerLayer:vector(packetBytes)  ETV
attr interpolationmode  none
attr source  receivedPacketFromLowerLayer
vector 723  CAIN.ueD2DTx[16].nic.mac  sentPacketToUpperLayer:vector(packetBytes)  ETV
attr interpolationmode  none
attr source  sentPacketToUpperLayer
vector 115  CAIN.eNodeB.nic.phy  averageCqiUlvect:vector  ETV
attr source  averageCqiUlvect
attr title  "Average Cqi reported in UL, vector"
attr unit  cqi
vector 99  CAIN.eNodeB.nic.mac  measuredItbs:vector  ETV
attr source  measuredItbs
attr title  "TBS index, vector"
attr unit  ""
vector 97  CAIN.eNodeB.nic.mac  sentPacketToUpperLayer:vector(packetBytes)  ETV
attr interpolationmode  none
attr source  sentPacketToUpperLayer
vector 92  CAIN.eNodeB.nic.pdcpRrc  receivedPacketFromLowerLayer:vector(packetBytes)  ETV
attr interpolationmode  none
attr source  receivedPacketFromLowerLayer
vector 93  CAIN.eNodeB.nic.pdcpRrc  sentPacketToUpperLayer:vector(packetBytes)  ETV
attr interpolationmode  none
attr source  sentPacketToUpperLayer
vector 91  CAIN.eNodeB.nic.pdcpRrc  receivedPacketFromUpperLayer:vector(packetBytes)  ETV
attr interpolationmode  none
attr source  receivedPacketFromUpperLayer
vector 94  CAIN.eNodeB.nic.pdcpRrc  sentPacketToLowerLayer:vector(packetBytes)  ETV
attr interpolationmode  none
attr source  sentPacketToLowerLayer
vector 95  CAIN.eNodeB.nic.mac  receivedPacketFromUpperLayer:vector(packetBytes)  ETV
attr interpolationmode  none
attr source  receivedPacketFromUpperLayer
vector 1357  CAIN.ueD2DTx[3].tcp  tcpRcvQueueBytes  ETV
vector 1344  CAIN.ueD2DTx[3].tcp  "advertised window"  ETV
vector 1343  CAIN.ueD2DTx[3].tcp  "receive window"  ETV
vector 1346  CAIN.ueD2DTx[3].tcp  "sent ack"  ETV
vector 301  CAIN.ueD2DTx[3].nic.pdcpRrc  receivedPacketFromUpperLayer:vector(packetBytes)  ETV
attr interpolationmode  none
attr source  receivedPacketFromUpperLayer
vector 304  CAIN.ueD2DTx[3].nic.pdcpRrc  sentPacketToLowerLayer:vector(packetBytes)  ETV
attr interpolationmode  none
attr source  sentPacketToLowerLayer
vector 305  CAIN.ueD2DTx[3].nic.mac  receivedPacketFromUpperLayer:vector(packetBytes)  ETV
attr interpolationmode  none
attr source  receivedPacketFromUpperLayer
vector 314  CAIN.ueD2DTx[3].nic.mac  CainMessageSent:vector  ETV
attr interpolationmode  none
attr title  "# of Sent CAIN message, vector"
vector 308  CAIN.ueD2DTx[3].nic.mac  sentPacketToLowerLayer:vector(packetBytes)  ETV
attr interpolationmode  none
attr source  sentPacketToLowerLayer
vector 626  CAIN.ueD2DTx[13].nic.mac  receivedPacketFromLowerLayer:vector(packetBytes)  ETV
attr interpolationmode  none
attr source  receivedPacketFromLowerLayer
vector 628  CAIN.ueD2DTx[13].nic.mac  sentPacketToLowerLayer:vector(packetBytes)  ETV
attr interpolationmode  none
attr source  sentPacketToLowerLayer
vector 228  CAIN.ueD2DTx[0].nic.phy  averageCqiDlvect:vector  ETV
attr source  averageCqiDlvect
attr title  "Average Cqi reported in DL, vector"
attr unit  cqi
vector 210  CAIN.ueD2DTx[0].nic.mac  receivedPacketFromLowerLayer:vector(packetBytes)  ETV
attr interpolationmode  none
attr source  receivedPacketFromLowerLayer
vector 106  CAIN.eNodeB.nic.mac  DistanceSignal:vector  ETV
attr interpolationmode  none
attr title  "Distance to enb, vector"
vector 100  CAIN.eNodeB.nic.mac  CainMessage:vector  ETV
attr interpolationmode  none
attr title  "eNB received CAIN message, vector"
vector 632  CAIN.ueD2DTx[13].nic.mac  DropedCainMessage:vector  ETV
attr interpolationmode  none
attr title  "Droped CAIN message due to RB not available, vector"
vector 212  CAIN.ueD2DTx[0].nic.mac  sentPacketToLowerLayer:vector(packetBytes)  ETV
attr interpolationmode  none
attr source  sentPacketToLowerLayer
vector 211  CAIN.ueD2DTx[0].nic.mac  sentPacketToUpperLayer:vector(packetBytes)  ETV
attr interpolationmode  none
attr source  sentPacketToUpperLayer
vector 206  CAIN.ueD2DTx[0].nic.pdcpRrc  receivedPacketFromLowerLayer:vector(packetBytes)  ETV
attr interpolationmode  none
attr source  receivedPacketFromLowerLayer
vector 207  CAIN.ueD2DTx[0].nic.pdcpRrc  sentPacketToUpperLayer:vector(packetBytes)  ETV
attr interpolationmode  none
attr source  sentPacketToUpperLayer
vector 1381  CAIN.ueD2DTx[7].tcp  tcpRcvQueueBytes  ETV
vector 1368  CAIN.ueD2DTx[7].tcp  "advertised window"  ETV
vector 1367  CAIN.ueD2DTx[7].tcp  "receive window"  ETV
vector 1370  CAIN.ueD2DTx[7].tcp  "sent ack"  ETV
vector 429  CAIN.ueD2DTx[7].nic.pdcpRrc  receivedPacketFromUpperLayer:vector(packetBytes)  ETV
attr interpolationmode  none
attr source  receivedPacketFromUpperLayer
vector 432  CAIN.ueD2DTx[7].nic.pdcpRrc  sentPacketToLowerLayer:vector(packetBytes)  ETV
attr interpolationmode  none
attr source  sentPacketToLowerLayer
vector 433  CAIN.ueD2DTx[7].nic.mac  receivedPacketFromUpperLayer:vector(packetBytes)  ETV
attr interpolationmode  none
attr source  receivedPacketFromUpperLayer
vector 442  CAIN.ueD2DTx[7].nic.mac  CainMessageSent:vector  ETV
attr interpolationmode  none
attr title  "# of Sent CAIN message, vector"
vector 436  CAIN.ueD2DTx[7].nic.mac  sentPacketToLowerLayer:vector(packetBytes)  ETV
attr interpolationmode  none
attr source  sentPacketToLowerLayer
vector 1405  CAIN.ueD2DTx[18].tcp  tcpRcvQueueBytes  ETV
vector 1392  CAIN.ueD2DTx[18].tcp  "advertised window"  ETV
vector 1391  CAIN.ueD2DTx[18].tcp  "receive window"  ETV
vector 1394  CAIN.ueD2DTx[18].tcp  "sent ack"  ETV
vector 781  CAIN.ueD2DTx[18].nic.pdcpRrc  receivedPacketFromUpperLayer:vector(packetBytes)  ETV
attr interpolationmode  none
attr source  receivedPacketFromUpperLayer
vector 784  CAIN.ueD2DTx[18].nic.pdcpRrc  sentPacketToLowerLayer:vector(packetBytes)  ETV
attr interpolationmode  none
attr source  sentPacketToLowerLayer
vector 785  CAIN.ueD2DTx[18].nic.mac  receivedPacketFromUpperLayer:vector(packetBytes)  ETV
attr interpolationmode  none
attr source  receivedPacketFromUpperLayer
vector 788  CAIN.ueD2DTx[18].nic.mac  sentPacketToLowerLayer:vector(packetBytes)  ETV
attr interpolationmode  none
attr source  sentPacketToLowerLayer
vector 786  CAIN.ueD2DTx[18].nic.mac  receivedPacketFromLowerLayer:vector(packetBytes)  ETV
attr interpolationmode  none
attr source  receivedPacketFromLowerLayer
vector 1429  CAIN.ueD2DTx[10].tcp  tcpRcvQueueBytes  ETV
vector 1416  CAIN.ueD2DTx[10].tcp  "advertised window"  ETV
vector 1415  CAIN.ueD2DTx[10].tcp  "receive window"  ETV
vector 1418  CAIN.ueD2DTx[10].tcp  "sent ack"  ETV
vector 525  CAIN.ueD2DTx[10].nic.pdcpRrc  receivedPacketFromUpperLayer:vector(packetBytes)  ETV
attr interpolationmode  none
attr source  receivedPacketFromUpperLayer
vector 528  CAIN.ueD2DTx[10].nic.pdcpRrc  sentPacketToLowerLayer:vector(packetBytes)  ETV
attr interpolationmode  none
attr source  sentPacketToLowerLayer
vector 529  CAIN.ueD2DTx[10].nic.mac  receivedPacketFromUpperLayer:vector(packetBytes)  ETV
attr interpolationmode  none
attr source  receivedPacketFromUpperLayer
vector 539  CAIN.ueD2DTx[10].nic.mac  CainHopMessageSent:vector  ETV
attr interpolationmode  none
attr title  "# of Sent CAIN hop message, vector"
vector 532  CAIN.ueD2DTx[10].nic.mac  sentPacketToLowerLayer:vector(packetBytes)  ETV
attr interpolationmode  none
attr source  sentPacketToLowerLayer
vector 787  CAIN.ueD2DTx[18].nic.mac  sentPacketToUpperLayer:vector(packetBytes)  ETV
attr interpolationmode  none
attr source  sentPacketToUpperLayer
vector 818  CAIN.ueD2DTx[19].nic.mac  receivedPacketFromLowerLayer:vector(packetBytes)  ETV
attr interpolationmode  none
attr source  receivedPacketFromLowerLayer
vector 820  CAIN.ueD2DTx[19].nic.mac  sentPacketToLowerLayer:vector(packetBytes)  ETV
attr interpolationmode  none
attr source  sentPacketToLowerLayer
vector 101  CAIN.eNodeB.nic.mac  CainHopMessage:vector  ETV
attr interpolationmode  none
attr title  "eNB received CAIN hop message, vector"
vector 1453  CAIN.ueD2DTx[8].tcp  tcpRcvQueueBytes  ETV
vector 1440  CAIN.ueD2DTx[8].tcp  "advertised window"  ETV
vector 1439  CAIN.ueD2DTx[8].tcp  "receive window"  ETV
vector 1442  CAIN.ueD2DTx[8].tcp  "sent ack"  ETV
vector 461  CAIN.ueD2DTx[8].nic.pdcpRrc  receivedPacketFromUpperLayer:vector(packetBytes)  ETV
attr interpolationmode  none
attr source  receivedPacketFromUpperLayer
vector 464  CAIN.ueD2DTx[8].nic.pdcpRrc  sentPacketToLowerLayer:vector(packetBytes)  ETV
attr interpolationmode  none
attr source  sentPacketToLowerLayer
vector 465  CAIN.ueD2DTx[8].nic.mac  receivedPacketFromUpperLayer:vector(packetBytes)  ETV
attr interpolationmode  none
attr source  receivedPacketFromUpperLayer
vector 1477  CAIN.ueD2DTx[9].tcp  tcpRcvQueueBytes  ETV
vector 1464  CAIN.ueD2DTx[9].tcp  "advertised window"  ETV
vector 1463  CAIN.ueD2DTx[9].tcp  "receive window"  ETV
vector 1466  CAIN.ueD2DTx[9].tcp  "sent ack"  ETV
vector 493  CAIN.ueD2DTx[9].nic.pdcpRrc  receivedPacketFromUpperLayer:vector(packetBytes)  ETV
attr interpolationmode  none
attr source  receivedPacketFromUpperLayer
vector 496  CAIN.ueD2DTx[9].nic.pdcpRrc  sentPacketToLowerLayer:vector(packetBytes)  ETV
attr interpolationmode  none
attr source  sentPacketToLowerLayer
vector 497  CAIN.ueD2DTx[9].nic.mac  receivedPacketFromUpperLayer:vector(packetBytes)  ETV
attr interpolationmode  none
attr source  receivedPacketFromUpperLayer
vector 475  CAIN.ueD2DTx[8].nic.mac  CainHopMessageSent:vector  ETV
attr interpolationmode  none
attr title  "# of Sent CAIN hop message, vector"
vector 468  CAIN.ueD2DTx[8].nic.mac  sentPacketToLowerLayer:vector(packetBytes)  ETV
attr interpolationmode  none
attr source  sentPacketToLowerLayer
vector 507  CAIN.ueD2DTx[9].nic.mac  CainHopMessageSent:vector  ETV
attr interpolationmode  none
attr title  "# of Sent CAIN hop message, vector"
vector 500  CAIN.ueD2DTx[9].nic.mac  sentPacketToLowerLayer:vector(packetBytes)  ETV
attr interpolationmode  none
attr source  sentPacketToLowerLayer
vector 109  CAIN.eNodeB.nic.mac  ServedHopDevs:vector  ETV
attr interpolationmode  none
attr title  "# of devices served on hop forwarding, vector"
vector 1501  CAIN.ueD2DTx[14].tcp  tcpRcvQueueBytes  ETV
vector 1488  CAIN.ueD2DTx[14].tcp  "advertised window"  ETV
vector 1487  CAIN.ueD2DTx[14].tcp  "receive window"  ETV
vector 1490  CAIN.ueD2DTx[14].tcp  "sent ack"  ETV
vector 653  CAIN.ueD2DTx[14].nic.pdcpRrc  receivedPacketFromUpperLayer:vector(packetBytes)  ETV
attr interpolationmode  none
attr source  receivedPacketFromUpperLayer
vector 656  CAIN.ueD2DTx[14].nic.pdcpRrc  sentPacketToLowerLayer:vector(packetBytes)  ETV
attr interpolationmode  none
attr source  sentPacketToLowerLayer
vector 657  CAIN.ueD2DTx[14].nic.mac  receivedPacketFromUpperLayer:vector(packetBytes)  ETV
attr interpolationmode  none
attr source  receivedPacketFromUpperLayer
vector 666  CAIN.ueD2DTx[14].nic.mac  CainMessageSent:vector  ETV
attr interpolationmode  none
attr title  "# of Sent CAIN message, vector"
vector 660  CAIN.ueD2DTx[14].nic.mac  sentPacketToLowerLayer:vector(packetBytes)  ETV
attr interpolationmode  none
attr source  sentPacketToLowerLayer
vector 754  CAIN.ueD2DTx[17].nic.mac  receivedPacketFromLowerLayer:vector(packetBytes)  ETV
attr interpolationmode  none
attr source  receivedPacketFromLowerLayer
vector 756  CAIN.ueD2DTx[17].nic.mac  sentPacketToLowerLayer:vector(packetBytes)  ETV
attr interpolationmode  none
attr source  sentPacketToLowerLayer
vector 761  CAIN.ueD2DTx[17].nic.mac  DropedHopMessage:vector  ETV
attr interpolationmode  none
attr title  "Droped Hop CAIN message due to RB not available, vector"
vector 1301  CAIN.eNodeB1.sctp  "SendQueue of Association 5"  ETV
vector 1065  CAIN.eNodeB1.sctp  "TSN Sent 5:10.0.5.1"  ETV
vector 1072  CAIN.eNodeB1.sctp  "Outstanding Bytes 5:10.0.5.1"  ETV
vector 870  CAIN.eNodeB1.sctp  "Outstanding Bytes 4:Total"  ETV
vector 1071  CAIN.eNodeB1.sctp  "Queued Sent Bytes 5:10.0.5.1"  ETV
vector 869  CAIN.eNodeB1.sctp  "Queued Sent Bytes 4:Total"  ETV
vector 914  CAIN.eNodeB.sctp  "TSN Received 1:10.0.5.2"  ETV
vector 890  CAIN.eNodeB.sctp  "Queued Received Bytes 1:Total"  ETV
vector 886  CAIN.eNodeB.sctp  "Advertised Receiver Window 1"  ETV
vector 895  CAIN.eNodeB.sctp  "Number of Total Gap Blocks Stored 1"  ETV
vector 896  CAIN.eNodeB.sctp  "Number of Revokable Gap Blocks Stored 1"  ETV
vector 897  CAIN.eNodeB.sctp  "Number of Non-Revokable Gap Blocks Stored 1"  ETV
vector 898  CAIN.eNodeB.sctp  "Number of Duplicate TSNs Stored 1"  ETV
vector 902  CAIN.eNodeB.sctp  "Length of SACK Sent 1"  ETV
vector 899  CAIN.eNodeB.sctp  "Number of Revokable Gap Blocks Sent 1"  ETV
vector 900  CAIN.eNodeB.sctp  "Number of Non-Revokable Gap Blocks Sent 1"  ETV
vector 901  CAIN.eNodeB.sctp  "Number of Duplicate TSNs Sent 1"  ETV
vector 906  CAIN.eNodeB.sctp  "End to End Delay of Association 1"  ETV
vector 141  CAIN.eNodeB.x2App[0].client  rcvdPk:vector(packetBytes)  ETV
attr interpolationmode  none
attr source  rcvdPk
attr title  "packets received, vector(packetBytes)"
vector 1300  CAIN.eNodeB1.sctp  "Number of Gap Blocks in Last SACK of Association 5"  ETV
vector 871  CAIN.eNodeB1.sctp  "Number of Revokable Gap Blocks in SACK 4"  ETV
vector 872  CAIN.eNodeB1.sctp  "Number of Non-Revokable Gap Blocks in SACK 4"  ETV
vector 1082  CAIN.eNodeB1.sctp  "TSN Acked CumAck 5:10.0.5.1"  ETV
vector 1048  CAIN.eNodeB1.sctp  "Number of Gap Acked Chunks in Last SACK 5:10.0.2.2"  ETV
vector 1049  CAIN.eNodeB1.sctp  "Number of Non-Revokable Gap Acked Chunks in Last SACK 5:10.0.2.2"  ETV
vector 1050  CAIN.eNodeB1.sctp  "Number of Gap Missed Chunks in Last SACK 5:10.0.2.2"  ETV
vector 1021  CAIN.eNodeB1.sctp  "Number of Gap Acked Chunks in Last SACK 5:10.0.4.1"  ETV
vector 1022  CAIN.eNodeB1.sctp  "Number of Non-Revokable Gap Acked Chunks in Last SACK 5:10.0.4.1"  ETV
vector 1023  CAIN.eNodeB1.sctp  "Number of Gap Missed Chunks in Last SACK 5:10.0.4.1"  ETV
vector 1075  CAIN.eNodeB1.sctp  "Number of Gap Acked Chunks in Last SACK 5:10.0.5.1"  ETV
vector 1076  CAIN.eNodeB1.sctp  "Number of Non-Revokable Gap Acked Chunks in Last SACK 5:10.0.5.1"  ETV
vector 1077  CAIN.eNodeB1.sctp  "Number of Gap Missed Chunks in Last SACK 5:10.0.5.1"  ETV
vector 881  CAIN.eNodeB1.sctp  "Arwnd in Last SACK 4"  ETV
vector 1084  CAIN.eNodeB1.sctp  "TSN PseudoCumAck 5:10.0.5.1"  ETV
vector 1085  CAIN.eNodeB1.sctp  "TSN RTXPseudoCumAck 5:10.0.5.1"  ETV
vector 1078  CAIN.eNodeB1.sctp  "Partial Bytes Acked 5:10.0.5.1"  ETV
vector 1525  CAIN.ueD2DTx[4].tcp  tcpRcvQueueBytes  ETV
vector 1512  CAIN.ueD2DTx[4].tcp  "advertised window"  ETV
vector 1511  CAIN.ueD2DTx[4].tcp  "receive window"  ETV
vector 1514  CAIN.ueD2DTx[4].tcp  "sent ack"  ETV
vector 333  CAIN.ueD2DTx[4].nic.pdcpRrc  receivedPacketFromUpperLayer:vector(packetBytes)  ETV
attr interpolationmode  none
attr source  receivedPacketFromUpperLayer
vector 336  CAIN.ueD2DTx[4].nic.pdcpRrc  sentPacketToLowerLayer:vector(packetBytes)  ETV
attr interpolationmode  none
attr source  sentPacketToLowerLayer
vector 337  CAIN.ueD2DTx[4].nic.mac  receivedPacketFromUpperLayer:vector(packetBytes)  ETV
attr interpolationmode  none
attr source  receivedPacketFromUpperLayer
vector 347  CAIN.ueD2DTx[4].nic.mac  CainHopMessageSent:vector  ETV
attr interpolationmode  none
attr title  "# of Sent CAIN hop message, vector"
vector 340  CAIN.ueD2DTx[4].nic.mac  sentPacketToLowerLayer:vector(packetBytes)  ETV
attr interpolationmode  none
attr source  sentPacketToLowerLayer
vector 154  CAIN.eNodeB1.nic.mac  receivedPacketFromLowerLayer:vector(packetBytes)  ETV
attr interpolationmode  none
attr source  receivedPacketFromLowerLayer
vector 1549  CAIN.ueD2DTx[6].tcp  tcpRcvQueueBytes  ETV
vector 1536  CAIN.ueD2DTx[6].tcp  "advertised window"  ETV
vector 1535  CAIN.ueD2DTx[6].tcp  "receive window"  ETV
vector 1538  CAIN.ueD2DTx[6].tcp  "sent ack"  ETV
vector 397  CAIN.ueD2DTx[6].nic.pdcpRrc  receivedPacketFromUpperLayer:vector(packetBytes)  ETV
attr interpolationmode  none
attr source  receivedPacketFromUpperLayer
vector 400  CAIN.ueD2DTx[6].nic.pdcpRrc  sentPacketToLowerLayer:vector(packetBytes)  ETV
attr interpolationmode  none
attr source  sentPacketToLowerLayer
vector 401  CAIN.ueD2DTx[6].nic.mac  receivedPacketFromUpperLayer:vector(packetBytes)  ETV
attr interpolationmode  none
attr source  receivedPacketFromUpperLayer
vector 410  CAIN.ueD2DTx[6].nic.mac  CainMessageSent:vector  ETV
attr interpolationmode  none
attr title  "# of Sent CAIN message, vector"
vector 404  CAIN.ueD2DTx[6].nic.mac  sentPacketToLowerLayer:vector(packetBytes)  ETV
attr interpolationmode  none
attr source  sentPacketToLowerLayer
vector 1573  CAIN.ueD2DTx[13].tcp  tcpRcvQueueBytes  ETV
vector 1560  CAIN.ueD2DTx[13].tcp  "advertised window"  ETV
vector 1559  CAIN.ueD2DTx[13].tcp  "receive window"  ETV
vector 1562  CAIN.ueD2DTx[13].tcp  "sent ack"  ETV
vector 621  CAIN.ueD2DTx[13].nic.pdcpRrc  receivedPacketFromUpperLayer:vector(packetBytes)  ETV
attr interpolationmode  none
attr source  receivedPacketFromUpperLayer
vector 624  CAIN.ueD2DTx[13].nic.pdcpRrc  sentPacketToLowerLayer:vector(packetBytes)  ETV
attr interpolationmode  none
attr source  sentPacketToLowerLayer
vector 625  CAIN.ueD2DTx[13].nic.mac  receivedPacketFromUpperLayer:vector(packetBytes)  ETV
attr interpolationmode  none
attr source  receivedPacketFromUpperLayer
vector 1597  CAIN.ueD2DTx[11].tcp  tcpRcvQueueBytes  ETV
vector 1584  CAIN.ueD2DTx[11].tcp  "advertised window"  ETV
vector 1583  CAIN.ueD2DTx[11].tcp  "receive window"  ETV
vector 1586  CAIN.ueD2DTx[11].tcp  "sent ack"  ETV
vector 557  CAIN.ueD2DTx[11].nic.pdcpRrc  receivedPacketFromUpperLayer:vector(packetBytes)  ETV
attr interpolationmode  none
attr source  receivedPacketFromUpperLayer
vector 560  CAIN.ueD2DTx[11].nic.pdcpRrc  sentPacketToLowerLayer:vector(packetBytes)  ETV
attr interpolationmode  none
attr source  sentPacketToLowerLayer
vector 561  CAIN.ueD2DTx[11].nic.mac  receivedPacketFromUpperLayer:vector(packetBytes)  ETV
attr interpolationmode  none
attr source  receivedPacketFromUpperLayer
vector 570  CAIN.ueD2DTx[11].nic.mac  CainMessageSent:vector  ETV
attr interpolationmode  none
attr title  "# of Sent CAIN message, vector"
vector 564  CAIN.ueD2DTx[11].nic.mac  sentPacketToLowerLayer:vector(packetBytes)  ETV
attr interpolationmode  none
attr source  sentPacketToLowerLayer
vector 1621  CAIN.ueD2DTx[1].tcp  tcpRcvQueueBytes  ETV
vector 1608  CAIN.ueD2DTx[1].tcp  "advertised window"  ETV
vector 1607  CAIN.ueD2DTx[1].tcp  "receive window"  ETV
vector 1610  CAIN.ueD2DTx[1].tcp  "sent ack"  ETV
vector 237  CAIN.ueD2DTx[1].nic.pdcpRrc  receivedPacketFromUpperLayer:vector(packetBytes)  ETV
attr interpolationmode  none
attr source  receivedPacketFromUpperLayer
vector 240  CAIN.ueD2DTx[1].nic.pdcpRrc  sentPacketToLowerLayer:vector(packetBytes)  ETV
attr interpolationmode  none
attr source  sentPacketToLowerLayer
vector 241  CAIN.ueD2DTx[1].nic.mac  receivedPacketFromUpperLayer:vector(packetBytes)  ETV
attr interpolationmode  none
attr source  receivedPacketFromUpperLayer
vector 250  CAIN.ueD2DTx[1].nic.mac  CainMessageSent:vector  ETV
attr interpolationmode  none
attr title  "# of Sent CAIN message, vector"
vector 244  CAIN.ueD2DTx[1].nic.mac  sentPacketToLowerLayer:vector(packetBytes)  ETV
attr interpolationmode  none
attr source  sentPacketToLowerLayer
vector 1645  CAIN.ueD2DTx[15].tcp  tcpRcvQueueBytes  ETV
vector 1632  CAIN.ueD2DTx[15].tcp  "advertised window"  ETV
vector 1631  CAIN.ueD2DTx[15].tcp  "receive window"  ETV
vector 1634  CAIN.ueD2DTx[15].tcp  "sent ack"  ETV
vector 685  CAIN.ueD2DTx[15].nic.pdcpRrc  receivedPacketFromUpperLayer:vector(packetBytes)  ETV
attr interpolationmode  none
attr source  receivedPacketFromUpperLayer
vector 688  CAIN.ueD2DTx[15].nic.pdcpRrc  sentPacketToLowerLayer:vector(packetBytes)  ETV
attr interpolationmode  none
attr source  sentPacketToLowerLayer
vector 689  CAIN.ueD2DTx[15].nic.mac  receivedPacketFromUpperLayer:vector(packetBytes)  ETV
attr interpolationmode  none
attr source  receivedPacketFromUpperLayer
vector 627  CAIN.ueD2DTx[13].nic.mac  sentPacketToUpperLayer:vector(packetBytes)  ETV
attr interpolationmode  none
attr source  sentPacketToUpperLayer
vector 698  CAIN.ueD2DTx[15].nic.mac  CainMessageSent:vector  ETV
attr interpolationmode  none
attr title  "# of Sent CAIN message, vector"
vector 692  CAIN.ueD2DTx[15].nic.mac  sentPacketToLowerLayer:vector(packetBytes)  ETV
attr interpolationmode  none
attr source  sentPacketToLowerLayer
vector 108  CAIN.eNodeB.nic.mac  ServedDevs:vector  ETV
attr interpolationmode  none
attr title  "# of devices served on cain forwarding, vector"
vector 1669  CAIN.ueD2DTx[5].tcp  tcpRcvQueueBytes  ETV
vector 1656  CAIN.ueD2DTx[5].tcp  "advertised window"  ETV
vector 1655  CAIN.ueD2DTx[5].tcp  "receive window"  ETV
vector 1658  CAIN.ueD2DTx[5].tcp  "sent ack"  ETV
vector 365  CAIN.ueD2DTx[5].nic.pdcpRrc  receivedPacketFromUpperLayer:vector(packetBytes)  ETV
attr interpolationmode  none
attr source  receivedPacketFromUpperLayer
vector 368  CAIN.ueD2DTx[5].nic.pdcpRrc  sentPacketToLowerLayer:vector(packetBytes)  ETV
attr interpolationmode  none
attr source  sentPacketToLowerLayer
vector 369  CAIN.ueD2DTx[5].nic.mac  receivedPacketFromUpperLayer:vector(packetBytes)  ETV
attr interpolationmode  none
attr source  receivedPacketFromUpperLayer
vector 379  CAIN.ueD2DTx[5].nic.mac  CainHopMessageSent:vector  ETV
attr interpolationmode  none
attr title  "# of Sent CAIN hop message, vector"
vector 372  CAIN.ueD2DTx[5].nic.mac  sentPacketToLowerLayer:vector(packetBytes)  ETV
attr interpolationmode  none
attr source  sentPacketToLowerLayer
vector 1693  CAIN.ueD2DTx[12].tcp  tcpRcvQueueBytes  ETV
vector 1680  CAIN.ueD2DTx[12].tcp  "advertised window"  ETV
vector 1679  CAIN.ueD2DTx[12].tcp  "receive window"  ETV
vector 1682  CAIN.ueD2DTx[12].tcp  "sent ack"  ETV
vector 589  CAIN.ueD2DTx[12].nic.pdcpRrc  receivedPacketFromUpperLayer:vector(packetBytes)  ETV
attr interpolationmode  none
attr source  receivedPacketFromUpperLayer
vector 592  CAIN.ueD2DTx[12].nic.pdcpRrc  sentPacketToLowerLayer:vector(packetBytes)  ETV
attr interpolationmode  none
attr source  sentPacketToLowerLayer
vector 593  CAIN.ueD2DTx[12].nic.mac  receivedPacketFromUpperLayer:vector(packetBytes)  ETV
attr interpolationmode  none
attr source  receivedPacketFromUpperLayer
vector 602  CAIN.ueD2DTx[12].nic.mac  CainMessageSent:vector  ETV
attr interpolationmode  none
attr title  "# of Sent CAIN message, vector"
vector 596  CAIN.ueD2DTx[12].nic.mac  sentPacketToLowerLayer:vector(packetBytes)  ETV
attr interpolationmode  none
attr source  sentPacketToLowerLayer
vector 1717  CAIN.ueD2DTx[0].tcp  tcpRcvQueueBytes  ETV
vector 1704  CAIN.ueD2DTx[0].tcp  "advertised window"  ETV
vector 1703  CAIN.ueD2DTx[0].tcp  "receive window"  ETV
vector 1706  CAIN.ueD2DTx[0].tcp  "sent ack"  ETV
vector 205  CAIN.ueD2DTx[0].nic.pdcpRrc  receivedPacketFromUpperLayer:vector(packetBytes)  ETV
attr interpolationmode  none
attr source  receivedPacketFromUpperLayer
vector 208  CAIN.ueD2DTx[0].nic.pdcpRrc  sentPacketToLowerLayer:vector(packetBytes)  ETV
attr interpolationmode  none
attr source  sentPacketToLowerLayer
vector 209  CAIN.ueD2DTx[0].nic.mac  receivedPacketFromUpperLayer:vector(packetBytes)  ETV
attr interpolationmode  none
attr source  receivedPacketFromUpperLayer
vector 218  CAIN.ueD2DTx[0].nic.mac  CainMessageSent:vector  ETV
attr interpolationmode  none
attr title  "# of Sent CAIN message, vector"
vector 1741  CAIN.ueD2DTx[17].tcp  tcpRcvQueueBytes  ETV
vector 1728  CAIN.ueD2DTx[17].tcp  "advertised window"  ETV
vector 1727  CAIN.ueD2DTx[17].tcp  "receive window"  ETV
vector 1730  CAIN.ueD2DTx[17].tcp  "sent ack"  ETV
vector 749  CAIN.ueD2DTx[17].nic.pdcpRrc  receivedPacketFromUpperLayer:vector(packetBytes)  ETV
attr interpolationmode  none
attr source  receivedPacketFromUpperLayer
vector 752  CAIN.ueD2DTx[17].nic.pdcpRrc  sentPacketToLowerLayer:vector(packetBytes)  ETV
attr interpolationmode  none
attr source  sentPacketToLowerLayer
vector 753  CAIN.ueD2DTx[17].nic.mac  receivedPacketFromUpperLayer:vector(packetBytes)  ETV
attr interpolationmode  none
attr source  receivedPacketFromUpperLayer
vector 755  CAIN.ueD2DTx[17].nic.mac  sentPacketToUpperLayer:vector(packetBytes)  ETV
attr interpolationmode  none
attr source  sentPacketToUpperLayer
vector 1765  CAIN.ueD2DTx[2].tcp  tcpRcvQueueBytes  ETV
vector 1752  CAIN.ueD2DTx[2].tcp  "advertised window"  ETV
vector 1751  CAIN.ueD2DTx[2].tcp  "receive window"  ETV
vector 1754  CAIN.ueD2DTx[2].tcp  "sent ack"  ETV
vector 269  CAIN.ueD2DTx[2].nic.pdcpRrc  receivedPacketFromUpperLayer:vector(packetBytes)  ETV
attr interpolationmode  none
attr source  receivedPacketFromUpperLayer
vector 272  CAIN.ueD2DTx[2].nic.pdcpRrc  sentPacketToLowerLayer:vector(packetBytes)  ETV
attr interpolationmode  none
attr source  sentPacketToLowerLayer
vector 273  CAIN.ueD2DTx[2].nic.mac  receivedPacketFromUpperLayer:vector(packetBytes)  ETV
attr interpolationmode  none
attr source  receivedPacketFromUpperLayer
vector 282  CAIN.ueD2DTx[2].nic.mac  CainMessageSent:vector  ETV
attr interpolationmode  none
attr title  "# of Sent CAIN message, vector"
vector 276  CAIN.ueD2DTx[2].nic.mac  sentPacketToLowerLayer:vector(packetBytes)  ETV
attr interpolationmode  none
attr source  sentPacketToLowerLayer
vector 1789  CAIN.ueD2DTx[19].tcp  tcpRcvQueueBytes  ETV
vector 1776  CAIN.ueD2DTx[19].tcp  "advertised window"  ETV
vector 1775  CAIN.ueD2DTx[19].tcp  "receive window"  ETV
vector 1778  CAIN.ueD2DTx[19].tcp  "sent ack"  ETV
vector 813  CAIN.ueD2DTx[19].nic.pdcpRrc  receivedPacketFromUpperLayer:vector(packetBytes)  ETV
attr interpolationmode  none
attr source  receivedPacketFromUpperLayer
vector 816  CAIN.ueD2DTx[19].nic.pdcpRrc  sentPacketToLowerLayer:vector(packetBytes)  ETV
attr interpolationmode  none
attr source  sentPacketToLowerLayer
vector 817  CAIN.ueD2DTx[19].nic.mac  receivedPacketFromUpperLayer:vector(packetBytes)  ETV
attr interpolationmode  none
attr source  receivedPacketFromUpperLayer
vector 826  CAIN.ueD2DTx[19].nic.mac  CainMessageSent:vector  ETV
attr interpolationmode  none
attr title  "# of Sent CAIN message, vector"
vector 402  CAIN.ueD2DTx[6].nic.mac  receivedPacketFromLowerLayer:vector(packetBytes)  ETV
attr interpolationmode  none
attr source  receivedPacketFromLowerLayer
vector 408  CAIN.ueD2DTx[6].nic.mac  DropedCainMessage:vector  ETV
attr interpolationmode  none
attr title  "Droped CAIN message due to RB not available, vector"
vector 403  CAIN.ueD2DTx[6].nic.mac  sentPacketToUpperLayer:vector(packetBytes)  ETV
attr interpolationmode  none
attr source  sentPacketToUpperLayer
1108	49737 24 150 150 0.0000001228 0.0000001228 1 0 0 0 0
1219	49761 28 235 235 0.0000006304 0.0000006304 1 65535 65535 65535 4294836225
1220	49789 27 235 235 0.0000006304 0.0000006304 1 8940 8940 8940 79923600
1221	49816 29 235 235 0.0000006304 0.0000006304 1 0.3725 0.3725 0.3725 0.13875625
1217	49845 24 235 235 0.0000006304 0.0000006304 1 3 3 3 9
1224	49869 24 235 235 0.0000006304 0.0000006304 1 1 1 1 1
1236	49893 24 163 163 0.0000003096 0.0000003096 1 0 0 0 0
1192	49917 28 235 235 0.0000006304 0.0000006304 1 65535 65535 65535 4294836225
1193	49945 27 235 235 0.0000006304 0.0000006304 1 8940 8940 8940 79923600
1194	49972 29 235 235 0.0000006304 0.0000006304 1 0.3725 0.3725 0.3725 0.13875625
1190	50001 24 235 235 0.0000006304 0.0000006304 1 3 3 3 9
1197	50025 24 235 235 0.0000006304 0.0000006304 1 1 1 1 1
1209	50049 24 163 163 0.0000003096 0.0000003096 1 0 0 0 0
910	50073 27 235 235 0.0000006304 0.0000006304 1 65535 65535 65535 4294836225
911	50100 26 235 235 0.0000006304 0.0000006304 1 8940 8940 8940 79923600
912	50126 28 235 235 0.0000006304 0.0000006304 1 0.3725 0.3725 0.3725 0.13875625
908	50154 46 235 302 0.0000006304 0.0000008564 2 1 3 4 10
909	50200 30 302 302 0.0000008564 0.0000008564 1 2.26e-07 2.26e-07 2.26e-07 5.1076e-14
914	50230 753 3198 17712 0.0570000972 0.2570008636 27 2000 2026 54351 109410201
917	50983 44 207 221 0.000000552 0.000000596 2 1 2 3 5
916	51027 44 207 221 0.000000552 0.000000596 2 1 2 3 5
918	51071 46 302 308 0.0000008564 0.0000009004 2 1 2 3 5
927	51117 12 131 131 0 0 1 0 0 0 0
886	51129 86 3198 32402 0.0570000972 0.4570008636 3 65533 65535 196603 12884246539
890	51215 747 3198 32402 0.0570000972 0.4570008636 30 0 48 56 2328
895	51962 74 3198 32402 0.0570000972 0.4570008636 3 0 0 0 0
896	52036 74 3198 32402 0.0570000972 0.4570008636 3 0 0 0 0
897	52110 74 3198 32402 0.0570000972 0.4570008636 3 0 0 0 0
898	52184 74 3198 32402 0.0570000972 0.4570008636 3 0 0 0 0
899	52258 74 3198 32402 0.0570000972 0.4570008636 3 0 0 0 0
900	52332 74 3198 32402 0.0570000972 0.4570008636 3 0 0 0 0
901	52406 74 3198 32402 0.0570000972 0.4570008636 3 0 0 0 0
902	52480 77 3198 32402 0.0570000972 0.4570008636 3 16 16 48 768
904	52557 27 163 163 0.0000003096 0.0000003096 1 65535 65535 65535 4294836225
906	52584 887 3201 17737 0.0570000972 0.2570008636 27 9.72e-08 4.652e-07 1.14884e-05 5.22894128e-12
907	53471 12 131 131 0 0 1 0 0 0 0
1138	53483 27 178 178 0.000000458 0.000000458 1 65535 65535 65535 4294836225
1139	53510 26 178 178 0.000000458 0.000000458 1 8940 8940 8940 79923600
1140	53536 28 178 178 0.000000458 0.000000458 1 0.3725 0.3725 0.3725 0.13875625
1136	53564 23 178 178 0.000000458 0.000000458 1 3 3 3 9
1143	53587 23 178 178 0.000000458 0.000000458 1 1 1 1 1
1151	53610 76 624 28765 0.0070001912 0.4070009576 3 0 0 0 0
1152	53686 76 624 28765 0.0070001912 0.4070009576 3 0 0 0 0
1153	53762 76 624 28765 0.0070001912 0.4070009576 3 0 0 0 0
1155	53838 24 150 150 0.0000001228 0.0000001228 1 0 0 0 0
1111	53862 27 178 178 0.000000458 0.000000458 1 65535 65535 65535 4294836225
1112	53889 26 178 178 0.000000458 0.000000458 1 8940 8940 8940 79923600
1113	53915 28 178 178 0.000000458 0.000000458 1 0.3725 0.3725 0.3725 0.13875625
1109	53943 23 178 178 0.000000458 0.000000458 1 3 3 3 9
1116	53966 23 178 178 0.000000458 0.000000458 1 1 1 1 1
1124	53989 76 624 28765 0.0070001912 0.4070009576 3 0 0 0 0
1125	54065 76 624 28765 0.0070001912 0.4070009576 3 0 0 0 0
1126	54141 76 624 28765 0.0070001912 0.4070009576 3 0 0 0 0
1128	54217 24 150 150 0.0000001228 0.0000001228 1 0 0 0 0
1165	54241 57 178 86995 0.000000458 1.2070003984 2 65535 65535 131070 8589672450
1166	54298 55 178 86995 0.000000458 1.2070003984 2 8940 8940 17880 159847200
1167	54353 58 178 86995 0.000000458 1.2070003984 2 0.3725 23.84 24.2125 568.48435625
1163	54411 123 178 28765 0.000000458 0.4070009576 5 1 3 7 13
1164	54534 138 255 28765 0.0000006744 0.4070009576 4 1.912e-07 0.2000005592 0.400001174 0.080000306560439
1168	54672 770 579 13974 0.007 0.2070003984 27 2000 2026 54351 109410201
1172	55442 48 273 287 0.0000007624 0.0000008064 2 1 2 3 5
1171	55490 48 273 287 0.0000007624 0.0000008064 2 1 2 3 5
1173	55538 48 255 265 0.0000006744 0.0000007184 2 1 2 3 5
1174	55586 1428 579 28765 0.007 0.4070009576 54 0 48 1162 36924
1175	57014 1428 579 28765 0.007 0.4070009576 54 0 48 1162 36924
1178	58442 76 624 28765 0.0070001912 0.4070009576 3 0 0 0 0
1179	58518 76 624 28765 0.0070001912 0.4070009576 3 0 0 0 0
1180	58594 76 624 28765 0.0070001912 0.4070009576 3 0 0 0 0
1181	58670 76 624 28765 0.0070001912 0.4070009576 3 0 0 0 0
1182	58746 24 150 150 0.0000001228 0.0000001228 1 0 0 0 0
1185	58770 85 624 28765 0.0070001912 0.4070009576 3 2000 2026 6028 12112680
1187	58855 76 624 28765 0.0070001912 0.4070009576 3 0 0 0 0
1188	58931 76 624 28765 0.0070001912 0.4070009576 3 0 0 0 0
1304	59007 76 624 28765 0.0070001912 0.4070009576 3 0 0 0 0
1305	59083 1198 579 13974 0.007 0.2070003984 54 0 24 581 9231
848	60281 1374 579 28765 0.007 0.4070009576 54 0 48 1162 36924
847	61655 1374 579 28765 0.007 0.4070009576 54 0 48 1162 36924
849	63029 73 624 28765 0.0070001912 0.4070009576 3 0 0 0 0
850	63102 73 624 28765 0.0070001912 0.4070009576 3 0 0 0 0
859	63175 85 624 28765 0.0070001912 0.4070009576 3 65533 65535 196603 12884246539
860	63260 112 150 28765 0.0000001228 0.4070009576 4 65533 65535 262138 17179082764
863	63372 12 123 123 0 0 1 0 0 0 0
1005	63384 24 149 149 0.0000001228 0.0000001228 1 0 0 0 0
1273	63408 28 236 236 0.0000006304 0.0000006304 1 65535 65535 65535 4294836225
1274	63436 27 236 236 0.0000006304 0.0000006304 1 8940 8940 8940 79923600
1275	63463 29 236 236 0.0000006304 0.0000006304 1 0.3725 0.3725 0.3725 0.13875625
1271	63492 24 236 236 0.0000006304 0.0000006304 1 3 3 3 9
1278	63516 24 236 236 0.0000006304 0.0000006304 1 1 1 1 1
1290	63540 24 164 164 0.0000003096 0.0000003096 1 0 0 0 0
1246	63564 28 236 236 0.0000006304 0.0000006304 1 65535 65535 65535 4294836225
1247	63592 27 236 236 0.0000006304 0.0000006304 1 8940 8940 8940 79923600
1248	63619 29 236 236 0.0000006304 0.0000006304 1 0.3725 0.3725 0.3725 0.13875625
1244	63648 24 236 236 0.0000006304 0.0000006304 1 3 3 3 9
1251	63672 24 236 236 0.0000006304 0.0000006304 1 1 1 1 1
1263	63696 24 164 164 0.0000003096 0.0000003096 1 0 0 0 0
959	63720 27 236 236 0.0000006304 0.0000006304 1 65535 65535 65535 4294836225
960	63747 26 236 236 0.0000006304 0.0000006304 1 8940 8940 8940 79923600
961	63773 28 236 236 0.0000006304 0.0000006304 1 0.3725 0.3725 0.3725 0.13875625
957	63801 46 236 301 0.0000006304 0.0000008564 2 1 3 4 10
958	63847 30 301 301 0.0000008564 0.0000008564 1 2.26e-07 2.26e-07 2.26e-07 5.1076e-14
963	63877 750 612 13981 0.0070000972 0.2070008636 27 2000 2026 54351 109410201
966	64627 44 208 222 0.000000552 0.000000596 2 1 2 3 5
965	64671 44 208 222 0.000000552 0.000000596 2 1 2 3 5
967	64715 46 301 307 0.0000008564 0.0000009004 2 1 2 3 5
976	64761 12 132 132 0 0 1 0 0 0 0
935	64773 85 612 28758 0.0070000972 0.4070008636 3 65533 65535 196603 12884246539
939	64858 743 612 28758 0.0070000972 0.4070008636 30 0 48 56 2328
944	65601 73 612 28758 0.0070000972 0.4070008636 3 0 0 0 0
945	65674 73 612 28758 0.0070000972 0.4070008636 3 0 0 0 0
946	65747 73 612 28758 0.0070000972 0.4070008636 3 0 0 0 0
947	65820 73 612 28758 0.0070000972 0.4070008636 3 0 0 0 0
948	65893 73 612 28758 0.0070000972 0.4070008636 3 0 0 0 0
949	65966 73 612 28758 0.0070000972 0.4070008636 3 0 0 0 0
950	66039 73 612 28758 0.0070000972 0.4070008636 3 0 0 0 0
951	66112 76 612 28758 0.0070000972 0.4070008636 3 16 16 48 768
953	66188 27 164 164 0.0000003096 0.0000003096 1 65535 65535 65535 4294836225
955	66215 884 615 14006 0.0070000972 0.2070008636 27 9.72e-08 4.652e-07 1.14884e-05 5.22894128e-12
956	67099 12 132 132 0 0 1 0 0 0 0
1035	67111 27 177 177 0.000000458 0.000000458 1 65535 65535 65535 4294836225
1036	67138 26 177 177 0.000000458 0.000000458 1 8940 8940 8940 79923600
1037	67164 28 177 177 0.000000458 0.000000458 1 0.3725 0.3725 0.3725 0.13875625
1033	67192 23 177 177 0.000000458 0.000000458 1 3 3 3 9
1040	67215 23 177 177 0.000000458 0.000000458 1 1 1 1 1
1048	67238 77 3210 32409 0.0570001912 0.4570009576 3 0 0 0 0
1049	67315 77 3210 32409 0.0570001912 0.4570009576 3 0 0 0 0
1050	67392 77 3210 32409 0.0570001912 0.4570009576 3 0 0 0 0
1052	67469 24 149 149 0.0000001228 0.0000001228 1 0 0 0 0
1008	67493 27 177 177 0.000000458 0.000000458 1 65535 65535 65535 4294836225
1009	67520 26 177 177 0.000000458 0.000000458 1 8940 8940 8940 79923600
1010	67546 28 177 177 0.000000458 0.000000458 1 0.3725 0.3725 0.3725 0.13875625
1006	67574 23 177 177 0.000000458 0.000000458 1 3 3 3 9
1013	67597 23 177 177 0.000000458 0.000000458 1 1 1 1 1
1021	67620 77 3210 32409 0.0570001912 0.4570009576 3 0 0 0 0
1022	67697 77 3210 32409 0.0570001912 0.4570009576 3 0 0 0 0
1023	67774 77 3210 32409 0.0570001912 0.4570009576 3 0 0 0 0
1025	67851 24 149 149 0.0000001228 0.0000001228 1 0 0 0 0
1062	67875 57 177 90649 0.000000458 1.2570003984 2 65535 65535 131070 8589672450
1063	67932 55 177 90649 0.000000458 1.2570003984 2 8940 8940 17880 159847200
1064	67987 58 177 90649 0.000000458 1.2570003984 2 0.3725 23.84 24.2125 568.48435625
1060	68045 124 177 32409 0.000000458 0.4570009576 5 1 3 7 13
1061	68169 139 256 32409 0.0000006744 0.4570009576 4 1.912e-07 0.2000005592 0.400001174 0.080000306560439
1065	68308 773 3155 17705 0.057 0.2570003984 27 2000 2026 54351 109410201
1069	69081 48 274 288 0.0000007624 0.0000008064 2 1 2 3 5
1068	69129 48 274 288 0.0000007624 0.0000008064 2 1 2 3 5
1070	69177 48 256 266 0.0000006744 0.0000007184 2 1 2 3 5
1071	69225 1432 3155 32409 0.057 0.4570009576 54 0 48 1162 36924
1072	70657 1432 3155 32409 0.057 0.4570009576 54 0 48 1162 36924
1075	72089 77 3210 32409 0.0570001912 0.4570009576 3 0 0 0 0
1076	72166 77 3210 32409 0.0570001912 0.4570009576 3 0 0 0 0
1077	72243 77 3210 32409 0.0570001912 0.4570009576 3 0 0 0 0
1078	72320 77 3210 32409 0.0570001912 0.4570009576 3 0 0 0 0
1079	72397 24 149 149 0.0000001228 0.0000001228 1 0 0 0 0
1082	72421 86 3210 32409 0.0570001912 0.4570009576 3 2000 2026 6028 12112680
1084	72507 77 3210 32409 0.0570001912 0.4570009576 3 0 0 0 0
1085	72584 77 3210 32409 0.0570001912 0.4570009576 3 0 0 0 0
1300	72661 77 3210 32409 0.0570001912 0.4570009576 3 0 0 0 0
1301	72738 1207 3155 17705 0.057 0.2570003984 54 0 24 581 9231
870	73945 1378 3155 32409 0.057 0.4570009576 54 0 48 1162 36924
869	75323 1378 3155 32409 0.057 0.4570009576 54 0 48 1162 36924
871	76701 74 3210 32409 0.0570001912 0.4570009576 3 0 0 0 0
872	76775 74 3210 32409 0.0570001912 0.4570009576 3 0 0 0 0
881	76849 86 3210 32409 0.0570001912 0.4570009576 3 65533 65535 196603 12884246539
882	76935 113 149 32409 0.0000001228 0.4570009576 4 65533 65535 262138 17179082764
885	77048 12 128 128 0 0 1 0 0 0 0
8	77060 8 0 0 0 0 1 0 0 0 0
9	77068 8 0 0 0 0 1 0 0 0 0
24	77076 9 0 0 0 0 1 0 0 0 0
25	77085 9 0 0 0 0 1 0 0 0 0
35	77094 9 0 0 0 0 1 0 0 0 0
36	77103 9 0 0 0 0 1 0 0 0 0
56	77112 9 0 0 0 0 1 0 0 0 0
57	77121 9 0 0 0 0 1 0 0 0 0
67	77130 9 0 0 0 0 1 0 0 0 0
68	77139 9 0 0 0 0 1 0 0 0 0
78	77148 9 0 0 0 0 1 0 0 0 0
79	77157 9 0 0 0 0 1 0 0 0 0
91	77166 277 1516 710455 0.027 9.103 15 44 44 660 29040
92	77443 277 1511 710450 0.027 9.103 15 45 45 675 30375
93	77720 277 1511 710450 0.027 9.103 15 44 44 660 29040
94	77997 277 1516 710455 0.027 9.103 15 45 45 675 30375
95	78274 532 1519 710524 0.027 9.104 29 45 92 1378 67556
96	78806 1542065 378 781745 0.002 10 86922 0 0 0 0
97	1620871 642 1507 710520 0.027 9.104 36 0 92 719 32965
98	1621513 523441 971 781725 0.014 10 29413 0 0 0 0
99	2144954 729 1237 710520 0.021 9.104 42 0 5 42 174
100	2145683 469149 1662 781725 0.03 10 21112 1 21112 222868828 3136878754100
101	2614832 177746 2208 781658 0.041 9.999 8156 1 8156 33264246 180879881666
106	2792578 1216593 1662 781745 0.03 10 58491 452 644 31680252 17492890198
108	4009171 416209 4052 781745 0.072 10 21075 7 11 231698 2547710
109	4425380 154249 2339 781663 0.043 9.999 8148 5 8 65162 521168
111	4579629 1323139 971 781745 0.014 10 58521 1 58521 1712382981 66807480415061
112	5902768 1217203 971 781745 0.014 10 58521 226 308 14139833 3453117639
113	7119971 1100161 971 781745 0.014 10 58521 0 0 0 0
115	8220132 710 1101 710249 0.018 9.1 39 2 4 99 273
120	8220842 10 0 0 0 0 1 0 0 0 0
121	8220852 10 0 0 0 0 1 0 0 0 0
128	8220862 419 139 32404 0 0.4570008636 18 36 512 1564 344080
130	8221281 438 139 32404 0 0.4570008636 18 0 8.8e-08 3.088e-07 1.946112e-14
131	8221719 280 0 258 0 0.0000007124 13 0 2 10 14
132	8221999 828 0 32406 0 0.4570009076 37 0 1 18 18
133	8222827 421 141 32405 0 0.4570008636 18 43 519 1690 366858
134	8223248 440 146 28763 0.0000001228 0.4070009576 18 43 519 1690 366858
137	8223688 421 141 32405 0 0.4570008636 18 36 512 1564 344080
138	8224109 440 146 28763 0.0000001228 0.4070009576 18 36 512 1564 344080
141	8224549 672 3203 17784 0.0570000972 0.2570008636 27 2 2 54 108
154	8225221 92628 3457 781541 0.062 9.998 4971 0 0 0 0
178	8317849 10 0 0 0 0 1 0 0 0 0
179	8317859 10 0 0 0 0 1 0 0 0 0
186	8317869 420 140 28760 0 0.4070008636 18 36 512 1564 344080
188	8318289 439 140 28760 0 0.4070008636 18 0 8.8e-08 3.088e-07 1.946112e-14
189	8318728 280 0 257 0 0.0000007124 13 0 2 10 14
190	8319008 830 0 28762 0 0.4070009076 37 0 1 18 18
191	8319838 422 142 28761 0 0.4070008636 18 43 519 1690 366858
192	8320260 439 145 32407 0.0000001228 0.4570009576 18 43 519 1690 366858
195	8320699 422 142 28761 0 0.4070008636 18 36 512 1564 344080
196	8321121 439 145 32407 0.0000001228 0.4570009576 18 36 512 1564 344080
199	8321560 669 617 14053 0.0070000972 0.2070008636 27 2 2 54 108
205	8322229 85 5176 709219 0.088660440601 9.088660440601 3 44 44 132 5808
206	8322314 292 1725 711349 0.032 9.114 15 45 45 675 30375
207	8322606 292 1725 711349 0.032 9.114 15 44 44 660 29040
208	8322898 85 5176 709219 0.088660440601 9.088660440601 3 45 45 135 6075
209	8322983 85 5179 709222 0.088660440601 9.088660440601 3 45 45 135 6075
210	8323068 368 1616 711163 0.029 9.111 20 0 0 0 0
211	8323436 272 1721 711344 0.032 9.114 14 47 92 703 37181
212	8323708 37775 1721 781604 0.032 9.999 2003 0 0 0 0
218	8361483 42246 5182 781604 0.089 9.999 1983 1 1983 1967136 2601209504
228	8403729 368 1615 711162 0.029 9.111 20 2 2 40 80
231	8404097 10 0 0 0 0 1 1 1 1 1
237	8404107 85 3928 707634 0.070868452201 9.070868452201 3 44 44 132 5808
240	8404192 85 3928 707634 0.070868452201 9.070868452201 3 45 45 135 6075
241	8404277 85 3931 707637 0.070868452201 9.070868452201 3 45 45 135 6075
244	8404362 37453 3935 781340 0.071 9.996 1986 0 0 0 0
250	8441815 42304 3935 781340 0.071 9.996 1986 1 1986 1973091 2613030181
263	8484119 10 0 0 0 0 1 1 1 1 1
269	8484129 85 5682 709811 0.095104090585 9.095104090585 3 44 44 132 5808
272	8484214 85 5682 709811 0.095104090585 9.095104090585 3 45 45 135 6075
273	8484299 85 5685 709814 0.095104090585 9.095104090585 3 45 45 135 6075
276	8484384 37368 5711 781342 0.096 9.996 1981 0 0 0 0
282	8521752 42204 5711 781342 0.096 9.996 1981 1 1981 1963171 2593348891
295	8563956 10 0 0 0 0 1 1 1 1 1
301	8563966 85 1551 704033 0.027262016546 9.027262016546 3 44 44 132 5808
304	8564051 85 1551 704033 0.027262016546 9.027262016546 3 45 45 135 6075
305	8564136 85 1554 704036 0.027262016546 9.027262016546 3 45 45 135 6075
308	8564221 37607 1564 781488 0.028 9.998 1995 0 0 0 0
314	8601828 42485 1564 781488 0.028 9.998 1995 1 1995 1991010 2648706970
327	8644313 10 0 0 0 0 1 1 1 1 1
333	8644323 85 3262 706627 0.058969033093 9.058969033093 3 44 44 132 5808
336	8644408 85 3262 706627 0.058969033093 9.058969033093 3 45 45 135 6075
337	8644493 85 3265 706630 0.058969033093 9.058969033093 3 45 45 135 6075
340	8644578 37506 3272 781609 0.059 9.999 1989 0 0 0 0
347	8682084 42366 3272 781609 0.059 9.999 1989 1 1989 1979055 2624886615
359	8724450 10 0 0 0 0 1 1 1 1 1
365	8724460 85 4627 708568 0.080385986073 9.080385986073 3 44 44 132 5808
368	8724545 85 4627 708568 0.080385986073 9.080385986073 3 45 45 135 6075
369	8724630 85 4630 708571 0.080385986073 9.080385986073 3 45 45 135 6075
372	8724715 37419 4653 781346 0.081 9.996 1984 0 0 0 0
379	8762134 42264 4653 781346 0.081 9.996 1984 1 1984 1969120 2605145760
391	8804398 10 0 0 0 0 1 1 1 1 1
397	8804408 85 3539 707046 0.063074826114 9.063074826114 3 44 44 132 5808
400	8804493 85 3539 707046 0.063074826114 9.063074826114 3 45 45 135 6075
401	8804578 201 3542 707915 0.063074826114 9.074 9 0 92 274 16748
402	8804779 139978 487722 781710 6.304 10 7389 0 0 0 0
403	8944757 114 488783 707911 6.318 9.074 6 0 0 0 0
404	8944871 163027 3552 781710 0.064 10 8617 0 0 0 0
408	9107898 231 487888 488677 6.306 6.316 12 1 12 78 650
410	9108129 26066 3552 487258 0.064 6.299 1248 1 1248 779376 648700624
423	9134195 10 0 0 0 0 1 1 1 1 1
429	9134205 85 1805 704469 0.032193433337 9.032193433337 3 44 44 132 5808
432	9134290 85 1805 704469 0.032193433337 9.032193433337 3 45 45 135 6075
433	9134375 85 1808 704472 0.032193433337 9.032193433337 3 45 45 135 6075
436	9134460 37590 1819 781493 0.033 9.998 1994 0 0 0 0
442	9172050 42465 1819 781493 0.033 9.998 1994 1 1994 1989015 2644726945
455	9214515 10 0 0 0 0 1 1 1 1 1
461	9214525 85 2264 705263 0.042654495104 9.042654495104 3 44 44 132 5808
464	9214610 85 2264 705263 0.042654495104 9.042654495104 3 45 45 135 6075
465	9214695 85 2267 705266 0.042654495104 9.042654495104 3 45 45 135 6075
468	9214780 26499 2319 781495 0.043 9.998 1395 0 0 0 0
475	9241279 29577 2319 781495 0.043 9.998 1395 1 1395 973710 905874870
487	9270856 163 0 6461 0 0.105 10 1 2 19 37
493	9271019 85 2272 705270 0.042742808261 9.042742808261 3 44 44 132 5808
496	9271104 85 2272 705270 0.042742808261 9.042742808261 3 45 45 135 6075
497	9271189 85 2275 705273 0.042742808261 9.042742808261 3 45 45 135 6075
500	9271274 26499 2321 781497 0.043 9.998 1395 0 0 0 0
507	9297773 29577 2321 781497 0.043 9.998 1395 1 1395 973710 905874870
519	9327350 163 0 6462 0 0.105 10 1 2 19 37
525	9327513 85 2017 704847 0.037255783586 9.037255783586 3 44 44 132 5808
528	9327598 85 2017 704847 0.037255783586 9.037255783586 3 45 45 135 6075
529	9327683 85 2020 704850 0.037255783586 9.037255783586 3 45 45 135 6075
532	9327768 26535 2035 781499 0.038 9.998 1397 0 0 0 0
539	9354303 29619 2035 781499 0.038 9.998 1397 1 1397 976503 909775295
551	9383922 163 0 6463 0 0.105 10 1 2 19 37
557	9384085 85 3824 707488 0.068596436554 9.068596436554 3 44 44 132 5808
560	9384170 85 3824 707488 0.068596436554 9.068596436554 3 45 45 135 6075
561	9384255 85 3827 707491 0.068596436554 9.068596436554 3 45 45 135 6075
564	9384340 37472 3855 781617 0.069 9.999 1987 0 0 0 0
570	9421812 42326 3855 781617 0.069 9.999 1987 1 1987 1975078 2616978350
583	9464138 10 0 0 0 0 1 1 1 1 1
589	9464148 85 5052 709084 0.086132885579 9.086132885579 3 44 44 132 5808
592	9464233 85 5052 709084 0.086132885579 9.086132885579 3 45 45 135 6075
593	9464318 85 5055 709087 0.086132885579 9.086132885579 3 45 45 135 6075
596	9464403 37403 5089 781434 0.087 9.997 1983 0 0 0 0
602	9501806 42245 5089 781434 0.087 9.997 1983 1 1983 1967136 2601209504
615	9544051 10 0 0 0 0 1 1 1 1 1
621	9544061 85 3729 707355 0.067512416122 9.067512416122 3 44 44 132 5808
624	9544146 85 3729 707355 0.067512416122 9.067512416122 3 45 45 135 6075
625	9544231 253 3732 708299 0.067512416122 9.078 12 0 47 276 12702
626	9544484 501505 1613 781737 0.029 10 26911 0 0 0 0
627	10045989 165 4020 708295 0.072 9.078 9 0 0 0 0
628	10046154 500931 1613 781737 0.029 10 26878 0 0 0 0
632	10547085 369 1718 3724 0.031 0.067 21 1 21 231 3311
647	10547454 10 0 0 0 0 1 1 1 1 1
653	10547464 85 2344 705365 0.043019576671 9.043019576671 3 44 44 132 5808
656	10547549 85 2344 705365 0.043019576671 9.043019576671 3 45 45 135 6075
657	10547634 85 2347 705368 0.043019576671 9.043019576671 3 45 45 135 6075
660	10547719 37557 2364 781621 0.044 9.999 1992 0 0 0 0
666	10585276 42426 2364 781621 0.044 9.999 1992 1 1992 1985028 2636778860
679	10627702 10 0 0 0 0 1 1 1 1 1
685	10627712 85 3981 707709 0.071731106779 9.071731106779 3 44 44 132 5808
688	10627797 85 3981 707709 0.071731106779 9.071731106779 3 45 45 135 6075
689	10627882 85 3984 707712 0.071731106779 9.071731106779 3 45 45 135 6075
692	10627967 37454 4026 781438 0.072 9.997 1986 0 0 0 0
698	10665421 42305 4026 781438 0.072 9.997 1986 1 1986 1973091 2613030181
711	10707726 10 0 0 0 0 1 1 1 1 1
717	10707736 84 837 702744 0.012314120021 9.012314120021 3 44 44 132 5808
720	10707820 84 837 702744 0.012314120021 9.012314120021 3 45 45 135 6075
721	10707904 252 840 703617 0.012314120021 9.023 12 0 47 276 12702
722	10708156 75015 999 781740 0.015 10 4039 0 0 0 0
723	10783171 165 1044 703613 0.017 9.023 9 0 0 0 0
724	10783336 74798 888 781740 0.013 10 4027 0 0 0 0
743	10858134 10 0 0 0 0 1 1 1 1 1
749	10858144 85 5233 709296 0.089070481334 9.089070481334 3 44 44 132 5808
752	10858229 85 5233 709296 0.089070481334 9.089070481334 3 45 45 135 6075
753	10858314 201 5236 710139 0.089070481334 9.099 9 23 45 282 9690
754	10858515 157333 2491 781734 0.045 10 8406 0 0 0 0
755	11015848 110 5588 710135 0.094 9.099 6 0 0 0 0
756	11015958 156991 2491 781734 0.045 10 8387 0 0 0 0
761	11172949 119 2568 3191 0.047 0.057 7 1 7 28 140
775	11173068 10 0 0 0 0 1 1 1 1 1
781	11173078 85 1871 704602 0.034967919982 9.034967919982 3 44 44 132 5808
784	11173163 85 1871 704602 0.034967919982 9.034967919982 3 45 45 135 6075
785	11173248 253 1874 705522 0.034967919982 9.045 12 0 45 286 11498
786	11173501 224550 2012 781747 0.037 10 11967 0 0 0 0
787	11398051 165 2121 705518 0.039 9.045 9 0 0 0 0
788	11398216 224330 1895 781747 0.035 10 11955 0 0 0 0
807	11622546 10 0 0 0 0 1 1 1 1 1
813	11622556 85 6033 710187 0.099035166858 9.099035166858 3 44 44 132 5808
816	11622641 85 6033 710187 0.099035166858 9.099035166858 3 45 45 135 6075
817	11622726 85 6036 710190 0.099035166858 9.099035166858 3 45 45 135 6075
818	11622811 152472 2138 781713 0.039 10 8113 0 0 0 0
820	11775283 188732 2138 781713 0.039 10 10094 0 0 0 0
826	11964015 41096 6078 781705 0.1 10 1981 1 1981 1963171 2593348891
839	12005111 10 0 0 0 0 1 1 1 1 1
1319	12005121 93 834 702741 0.012314120021 9.012314120021 3 7504 7504 22512 168930048
1320	12005214 93 834 702741 0.012314120021 9.012314120021 3 7504 7504 22512 168930048
1322	12005307 84 834 702741 0.012314120021 9.012314120021 3 0 0 0 0
1333	12005391 84 834 702741 0.012314120021 9.012314120021 3 0 0 0 0
1343	12005475 94 1548 704030 0.027262016546 9.027262016546 3 7504 7504 22512 168930048
1344	12005569 94 1548 704030 0.027262016546 9.027262016546 3 7504 7504 22512 168930048
1346	12005663 85 1548 704030 0.027262016546 9.027262016546 3 0 0 0 0
1357	12005748 85 1548 704030 0.027262016546 9.027262016546 3 0 0 0 0
1367	12005833 94 1802 704466 0.032193433337 9.032193433337 3 7504 7504 22512 168930048
1368	12005927 94 1802 704466 0.032193433337 9.032193433337 3 7504 7504 22512 168930048
1370	12006021 85 1802 704466 0.032193433337 9.032193433337 3 0 0 0 0
1381	12006106 85 1802 704466 0.032193433337 9.032193433337 3 0 0 0 0
1391	12006191 94 1868 704599 0.034967919982 9.034967919982 3 7504 7504 22512 168930048
1392	12006285 94 1868 704599 0.034967919982 9.034967919982 3 7504 7504 22512 168930048
1394	12006379 85 1868 704599 0.034967919982 9.034967919982 3 0 0 0 0
1405	12006464 85 1868 704599 0.034967919982 9.034967919982 3 0 0 0 0
1415	12006549 94 2014 704844 0.037255783586 9.037255783586 3 7504 7504 22512 168930048
1416	12006643 94 2014 704844 0.037255783586 9.037255783586 3 7504 7504 22512 168930048
1418	12006737 85 2014 704844 0.037255783586 9.037255783586 3 0 0 0 0
1429	12006822 85 2014 704844 0.037255783586 9.037255783586 3 0 0 0 0
1439	12006907 94 2261 705260 0.042654495104 9.042654495104 3 7504 7504 22512 168930048
1440	12007001 94 2261 705260 0.042654495104 9.042654495104 3 7504 7504 22512 168930048
1442	12007095 85 2261 705260 0.042654495104 9.042654495104 3 0 0 0 0
1453	12007180 85 2261 705260 0.042654495104 9.042654495104 3 0 0 0 0
1463	12007265 94 2269 705267 0.042742808261 9.042742808261 3 7504 7504 22512 168930048
1464	12007359 94 2269 705267 0.042742808261 9.042742808261 3 7504 7504 22512 168930048
1466	12007453 85 2269 705267 0.042742808261 9.042742808261 3 0 0 0 0
1477	12007538 85 2269 705267 0.042742808261 9.042742808261 3 0 0 0 0
1487	12007623 94 2341 705362 0.043019576671 9.043019576671 3 7504 7504 22512 168930048
1488	12007717 94 2341 705362 0.043019576671 9.043019576671 3 7504 7504 22512 168930048
1490	12007811 85 2341 705362 0.043019576671 9.043019576671 3 0 0 0 0
1501	12007896 85 2341 705362 0.043019576671 9.043019576671 3 0 0 0 0
1511	12007981 94 3259 706624 0.058969033093 9.058969033093 3 7504 7504 22512 168930048
1512	12008075 94 3259 706624 0.058969033093 9.058969033093 3 7504 7504 22512 168930048
1514	12008169 85 3259 706624 0.058969033093 9.058969033093 3 0 0 0 0
1525	12008254 85 3259 706624 0.058969033093 9.058969033093 3 0 0 0 0
1535	12008339 94 3536 707043 0.063074826114 9.063074826114 3 7504 7504 22512 168930048
1536	12008433 94 3536 707043 0.063074826114 9.063074826114 3 7504 7504 22512 168930048
1538	12008527 85 3536 707043 0.063074826114 9.063074826114 3 0 0 0 0
1549	12008612 85 3536 707043 0.063074826114 9.063074826114 3 0 0 0 0
1559	12008697 94 3726 707352 0.067512416122 9.067512416122 3 7504 7504 22512 168930048
1560	12008791 94 3726 707352 0.067512416122 9.067512416122 3 7504 7504 22512 168930048
1562	12008885 85 3726 707352 0.067512416122 9.067512416122 3 0 0 0 0
1573	12008970 85 3726 707352 0.067512416122 9.067512416122 3 0 0 0 0
1583	12009055 94 3821 707485 0.068596436554 9.068596436554 3 7504 7504 22512 168930048
1584	12009149 94 3821 707485 0.068596436554 9.068596436554 3 7504 7504 22512 168930048
1586	12009243 85 3821 707485 0.068596436554 9.068596436554 3 0 0 0 0
1597	12009328 85 3821 707485 0.068596436554 9.068596436554 3 0 0 0 0
1607	12009413 94 3925 707631 0.070868452201 9.070868452201 3 7504 7504 22512 168930048
1608	12009507 94 3925 707631 0.070868452201 9.070868452201 3 7504 7504 22512 168930048
1610	12009601 85 3925 707631 0.070868452201 9.070868452201 3 0 0 0 0
1621	12009686 85 3925 707631 0.070868452201 9.070868452201 3 0 0 0 0
1631	12009771 94 3978 707706 0.071731106779 9.071731106779 3 7504 7504 22512 168930048
1632	12009865 94 3978 707706 0.071731106779 9.071731106779 3 7504 7504 22512 168930048
1634	12009959 85 3978 707706 0.071731106779 9.071731106779 3 0 0 0 0
1645	12010044 85 3978 707706 0.071731106779 9.071731106779 3 0 0 0 0
1655	12010129 94 4624 708565 0.080385986073 9.080385986073 3 7504 7504 22512 168930048
1656	12010223 94 4624 708565 0.080385986073 9.080385986073 3 7504 7504 22512 168930048
1658	12010317 85 4624 708565 0.080385986073 9.080385986073 3 0 0 0 0
1669	12010402 85 4624 708565 0.080385986073 9.080385986073 3 0 0 0 0
1679	12010487 94 5049 709081 0.086132885579 9.086132885579 3 7504 7504 22512 168930048
1680	12010581 94 5049 709081 0.086132885579 9.086132885579 3 7504 7504 22512 168930048
1682	12010675 85 5049 709081 0.086132885579 9.086132885579 3 0 0 0 0
1693	12010760 85 5049 709081 0.086132885579 9.086132885579 3 0 0 0 0
1703	12010845 94 5173 709216 0.088660440601 9.088660440601 3 7504 7504 22512 168930048
1704	12010939 94 5173 709216 0.088660440601 9.088660440601 3 7504 7504 22512 168930048
1706	12011033 85 5173 709216 0.088660440601 9.088660440601 3 0 0 0 0
1717	12011118 85 5173 709216 0.088660440601 9.088660440601 3 0 0 0 0
1727	12011203 94 5230 709293 0.089070481334 9.089070481334 3 7504 7504 22512 168930048
1728	12011297 94 5230 709293 0.089070481334 9.089070481334 3 7504 7504 22512 168930048
1730	12011391 85 5230 709293 0.089070481334 9.089070481334 3 0 0 0 0
1741	12011476 85 5230 709293 0.089070481334 9.089070481334 3 0 0 0 0
1751	12011561 94 5679 709808 0.095104090585 9.095104090585 3 7504 7504 22512 168930048
1752	12011655 94 5679 709808 0.095104090585 9.095104090585 3 7504 7504 22512 168930048
1754	12011749 85 5679 709808 0.095104090585 9.095104090585 3 0 0 0 0
1765	12011834 85 5679 709808 0.095104090585 9.095104090585 3 0 0 0 0
1775	12011919 94 6030 710184 0.099035166858 9.099035166858 3 7504 7504 22512 168930048
1776	12012013 94 6030 710184 0.099035166858 9.099035166858 3 7504 7504 22512 168930048
1778	12012107 85 6030 710184 0.099035166858 9.099035166858 3 0 0 0 0
1789	12012192 85 6030 710184 0.099035166858 9.099035166858 3 0 0 0 0
