file 7550673 1589564583                                         
version 2
run CAIN-50-20200515-14:37:49-17079
attr configname CAIN
attr datetime 20200515-14:37:49
attr dist 200
attr experiment CAIN
attr inifile omnetpp.ini
attr iterationvars "$numUe=25, $pwr=-50, $dist=200, $mob=\"./movements/RWPRPGM-0.0.movements\""
attr iterationvars2 "$numUe=25, $pwr=-50, $dist=200, $mob=\"./movements/RWPRPGM-0.0.movements\", $repetition=0"
attr measurement "$numUe=25, $pwr=-50, $dist=200, $mob=\"./movements/RWPRPGM-0.0.movements\""
attr mob "\"./movements/RWPRPGM-0.0.movements\""
attr network lte.simulations.networks.CAIN
attr numUe 25
attr processid 17079
attr pwr -50
attr repetition 0
attr replication #0
attr resultdir results
attr runnumber 50
attr seedset 0
param **.**.amcMode "\"AUTO\""
param **.amcMode "\"D2D\""
param **.cainNetwork true
param **.channelControl.alpha 1.0
param **.channelControl.carrierFrequency 2100e+6Hz
param **.channelControl.pMax 10W
param **.d2dCqi 7
param **.deployer.numRbDl 50
param **.deployer.numRbUl 50
param **.distThresh ${dist=200}
param **.fbDelay 1
param **.feedbackComputation "xmldoc(\"config_channel.xml\")"
param **.mobility.constraintAreaMaxX 1000m
param **.mobility.constraintAreaMaxY 1000m
param **.mobility.constraintAreaMaxZ 0m
param **.mobility.constraintAreaMinX 0m
param **.mobility.constraintAreaMinY 0m
param **.mobility.constraintAreaMinZ 0m
param **.nic.phy.channelModel "xmldoc(\"config_channel.xml\")"
param **.numBands 50
param **.pwrThresh "${pwr= -50}"
param **.qtdThresh 3
param **.rbAllocationType "\"localized\""
param **.routingRecorder.enabled false
param **.tcpApp[*].tClose -1s
param **.ueD2DTx[*].mobility.changeAngleBy "normal(0deg, 30deg)"
param **.ueD2DTx[*].mobility.changeInterval "normal(5s, 0.1s)"
param **.ueD2DTx[*].mobility.nodeId -1
param **.ueD2DTx[*].mobility.speed "normal(2mps, 0.01mps)"
param **.ueD2DTx[*].mobility.traceFile "${mob=\"./movements/RWP-0.0.movements\",\"./movements/RWP-0.5.movements\",\"./movements/RPGM-0.0.movements\",\"./movements/RPGM-0.5.movements\",\"./movements/RWPRPGM-0.0.movements\",\"./movements/RWPRPGM-0.5.movements\"}"
param **.ueD2DTx[*].mobilityType "\"BonnMotionMobility\""
param **.usePreconfiguredTxParams false
param *.eNodeB*.numX2Apps 1
param *.eNodeB*.x2App[*].server.localPort "5000 + ancestorIndex(1)"
param *.eNodeB.d2dCapable false
param *.eNodeB.mobility.initFromDisplayString false
param *.eNodeB.mobility.initialX 300m
param *.eNodeB.mobility.initialY 300m
param *.eNodeB.nic.phy.enableD2DCqiReporting true
param *.eNodeB.txPower 19952.62315mw
param *.eNodeB.x2App[0].client.connectAddress "\"eNodeB1%x2ppp0\""
param *.eNodeB1.d2dCapable true
param *.eNodeB1.mobility.initFromDisplayString false
param *.eNodeB1.mobility.initialX 700m
param *.eNodeB1.mobility.initialY 300m
param *.eNodeB1.nic.phy.enableD2DCqiReporting true
param *.eNodeB1.txPower 19952.62315mw
param *.eNodeB1.x2App[0].client.connectAddress "\"eNodeB%x2ppp0\""
param *.extCell[*].bandAllocationType "\"FULL_ALLOC\""
param *.extCell[*].bandUtilization 0.5
param *.extCell[*].txDirection "\"ANISOTROPIC\""
param *.extCell[*].txPower 20
param *.extCell[0].position_x 100m
param *.extCell[0].position_y 600m
param *.extCell[0].txAngle 315
param *.extCell[1].position_x 600m
param *.extCell[1].position_y 600m
param *.extCell[1].txAngle 225
param *.numExtCells 2
param *.numUeCell 0
param *.numUeD2DRx 1
param *.numUeD2DTx 1
param *.ue*.macCellId 1
param *.ue*.masterId 1
param *.ue*.mobility.initFromDisplayString false
param *.ue*[0].macCellId 1
param *.ue*[0].masterId 1
param *.ue*[0].mobility.initFromDisplayString false
param *.ueD2D*.numTcpApps 1
param *.ueD2D*[*].d2dCapable true
param *.ueD2D*[0].d2dCapable false
param *.ueD2D*[0].numTcpApps 1
param *.ueD2DRx[0].mobility.initialX 310m
param *.ueD2DRx[0].mobility.initialY 350m
param *.ueD2DRx[0].tcpApp[*].localPort 1000
param *.ueD2DRx[0].tcpApp[*].typename "\"TCPSinkApp\""
param *.ueD2DTx*.nic.d2dPeerAddresses "\"ueD2DTx[1]\""
param *.ueD2DTx*.tcpApp[*].connectAddress "\"ueD2DTx[0]\""
param *.ueD2DTx*.tcpApp[*].localAddress "\"ueD2DTx\""
param *.ueD2DTx*.tcpApp[*].localPort 1000
param *.ueD2DTx*.tcpApp[*].sendBytes 1GiB
param *.ueD2DTx*.tcpApp[*].typename "\"TCPSessionApp\""
param *.ueD2DTx*.tcpApp[0].active true
param *.ueD2DTx*.tcpApp[0].connectPort 1000
param *.ueD2DTx*.tcpApp[0].tOpen uniform(0.010s,0.1s)
param *.ueD2DTx*.tcpApp[0].tSend uniform(0.15s,0.5s)
param *.ueD2DTx[0].mobility.initialX 290m
param *.ueD2DTx[0].mobility.initialY 350m
param *.ueD2DTx[0].tcpApp[*].localPort 1000
param *.ueD2DTx[0].tcpApp[*].sendBytes 1GiB
param *.ueD2DTx[0].tcpApp[*].typename "\"TCPSessionApp\""
param *.ueD2DTx[0].tcpApp[0].active true
param *.ueD2DTx[0].tcpApp[0].connectAddress "\"ueD2DRx[0]\""
param *.ueD2DTx[0].tcpApp[0].connectPort 1000
param *.ueD2DTx[0].tcpApp[0].localAddress "\"ueD2DTx[0]\""
param *.ueD2DTx[0].tcpApp[0].tOpen uniform(0.010s,0.1s)
param *.ueD2DTx[0].tcpApp[0].tSend uniform(0.15s,0.5s)

vector 8  CAIN.server.ppp[0].queue  queueLength:vector  ETV
attr interpolationmode  sample-hold
attr title  "queue length, vector"
vector 9  CAIN.server.ppp[0].ppp  txState:vector  ETV
attr interpolationmode  sample-hold
attr title  "tx state, vector"
vector 24  CAIN.router.ppp[0].queue  queueLength:vector  ETV
attr interpolationmode  sample-hold
attr title  "queue length, vector"
vector 25  CAIN.router.ppp[0].ppp  txState:vector  ETV
attr interpolationmode  sample-hold
attr title  "tx state, vector"
vector 35  CAIN.router.ppp[1].queue  queueLength:vector  ETV
attr interpolationmode  sample-hold
attr title  "queue length, vector"
vector 36  CAIN.router.ppp[1].ppp  txState:vector  ETV
attr interpolationmode  sample-hold
attr title  "tx state, vector"
vector 56  CAIN.pgw.ppp[0].queue  queueLength:vector  ETV
attr interpolationmode  sample-hold
attr title  "queue length, vector"
vector 57  CAIN.pgw.ppp[0].ppp  txState:vector  ETV
attr interpolationmode  sample-hold
attr title  "tx state, vector"
vector 67  CAIN.pgw.ppp[1].queue  queueLength:vector  ETV
attr interpolationmode  sample-hold
attr title  "queue length, vector"
vector 68  CAIN.pgw.ppp[1].ppp  txState:vector  ETV
attr interpolationmode  sample-hold
attr title  "tx state, vector"
vector 78  CAIN.pgw.pppInterface.queue  queueLength:vector  ETV
attr interpolationmode  sample-hold
attr title  "queue length, vector"
vector 79  CAIN.pgw.pppInterface.ppp  txState:vector  ETV
attr interpolationmode  sample-hold
attr title  "tx state, vector"
vector 120  CAIN.eNodeB.pppIf.queue  queueLength:vector  ETV
attr interpolationmode  sample-hold
attr title  "queue length, vector"
vector 121  CAIN.eNodeB.pppIf.ppp  txState:vector  ETV
attr interpolationmode  sample-hold
attr title  "tx state, vector"
vector 131  CAIN.eNodeB.x2ppp[0].queue  queueLength:vector  ETV
attr interpolationmode  sample-hold
attr title  "queue length, vector"
vector 132  CAIN.eNodeB.x2ppp[0].ppp  txState:vector  ETV
attr interpolationmode  sample-hold
attr title  "tx state, vector"
vector 178  CAIN.eNodeB1.pppIf.queue  queueLength:vector  ETV
attr interpolationmode  sample-hold
attr title  "queue length, vector"
vector 179  CAIN.eNodeB1.pppIf.ppp  txState:vector  ETV
attr interpolationmode  sample-hold
attr title  "tx state, vector"
vector 189  CAIN.eNodeB1.x2ppp[0].queue  queueLength:vector  ETV
attr interpolationmode  sample-hold
attr title  "queue length, vector"
vector 190  CAIN.eNodeB1.x2ppp[0].ppp  txState:vector  ETV
attr interpolationmode  sample-hold
attr title  "tx state, vector"
vector 231  CAIN.ueD2DTx[0].nic.phy  servingCell:vector  ETV
attr source  servingCell
attr title  "ID of the serving eNodeB for the UE, vector"
attr unit  ""
vector 263  CAIN.ueD2DTx[1].nic.phy  servingCell:vector  ETV
attr source  servingCell
attr title  "ID of the serving eNodeB for the UE, vector"
attr unit  ""
vector 295  CAIN.ueD2DTx[2].nic.phy  servingCell:vector  ETV
attr source  servingCell
attr title  "ID of the serving eNodeB for the UE, vector"
attr unit  ""
vector 327  CAIN.ueD2DTx[3].nic.phy  servingCell:vector  ETV
attr source  servingCell
attr title  "ID of the serving eNodeB for the UE, vector"
attr unit  ""
vector 359  CAIN.ueD2DTx[4].nic.phy  servingCell:vector  ETV
attr source  servingCell
attr title  "ID of the serving eNodeB for the UE, vector"
attr unit  ""
vector 391  CAIN.ueD2DTx[5].nic.phy  servingCell:vector  ETV
attr source  servingCell
attr title  "ID of the serving eNodeB for the UE, vector"
attr unit  ""
vector 423  CAIN.ueD2DTx[6].nic.phy  servingCell:vector  ETV
attr source  servingCell
attr title  "ID of the serving eNodeB for the UE, vector"
attr unit  ""
vector 455  CAIN.ueD2DTx[7].nic.phy  servingCell:vector  ETV
attr source  servingCell
attr title  "ID of the serving eNodeB for the UE, vector"
attr unit  ""
vector 487  CAIN.ueD2DTx[8].nic.phy  servingCell:vector  ETV
attr source  servingCell
attr title  "ID of the serving eNodeB for the UE, vector"
attr unit  ""
vector 519  CAIN.ueD2DTx[9].nic.phy  servingCell:vector  ETV
attr source  servingCell
attr title  "ID of the serving eNodeB for the UE, vector"
attr unit  ""
vector 551  CAIN.ueD2DTx[10].nic.phy  servingCell:vector  ETV
attr source  servingCell
attr title  "ID of the serving eNodeB for the UE, vector"
attr unit  ""
vector 583  CAIN.ueD2DTx[11].nic.phy  servingCell:vector  ETV
attr source  servingCell
attr title  "ID of the serving eNodeB for the UE, vector"
attr unit  ""
vector 615  CAIN.ueD2DTx[12].nic.phy  servingCell:vector  ETV
attr source  servingCell
attr title  "ID of the serving eNodeB for the UE, vector"
attr unit  ""
vector 647  CAIN.ueD2DTx[13].nic.phy  servingCell:vector  ETV
attr source  servingCell
attr title  "ID of the serving eNodeB for the UE, vector"
attr unit  ""
vector 679  CAIN.ueD2DTx[14].nic.phy  servingCell:vector  ETV
attr source  servingCell
attr title  "ID of the serving eNodeB for the UE, vector"
attr unit  ""
vector 711  CAIN.ueD2DTx[15].nic.phy  servingCell:vector  ETV
attr source  servingCell
attr title  "ID of the serving eNodeB for the UE, vector"
attr unit  ""
vector 743  CAIN.ueD2DTx[16].nic.phy  servingCell:vector  ETV
attr source  servingCell
attr title  "ID of the serving eNodeB for the UE, vector"
attr unit  ""
vector 775  CAIN.ueD2DTx[17].nic.phy  servingCell:vector  ETV
attr source  servingCell
attr title  "ID of the serving eNodeB for the UE, vector"
attr unit  ""
vector 807  CAIN.ueD2DTx[18].nic.phy  servingCell:vector  ETV
attr source  servingCell
attr title  "ID of the serving eNodeB for the UE, vector"
attr unit  ""
vector 839  CAIN.ueD2DTx[19].nic.phy  servingCell:vector  ETV
attr source  servingCell
attr title  "ID of the serving eNodeB for the UE, vector"
attr unit  ""
vector 871  CAIN.ueD2DTx[20].nic.phy  servingCell:vector  ETV
attr source  servingCell
attr title  "ID of the serving eNodeB for the UE, vector"
attr unit  ""
vector 903  CAIN.ueD2DTx[21].nic.phy  servingCell:vector  ETV
attr source  servingCell
attr title  "ID of the serving eNodeB for the UE, vector"
attr unit  ""
vector 935  CAIN.ueD2DTx[22].nic.phy  servingCell:vector  ETV
attr source  servingCell
attr title  "ID of the serving eNodeB for the UE, vector"
attr unit  ""
vector 967  CAIN.ueD2DTx[23].nic.phy  servingCell:vector  ETV
attr source  servingCell
attr title  "ID of the serving eNodeB for the UE, vector"
attr unit  ""
vector 999  CAIN.ueD2DTx[24].nic.phy  servingCell:vector  ETV
attr source  servingCell
attr title  "ID of the serving eNodeB for the UE, vector"
attr unit  ""
vector 1023  CAIN.eNodeB.sctp  "Throughput of Association 3"  ETV
vector 1045  CAIN.eNodeB1.sctp  "Throughput of Association 4"  ETV
vector 1067  CAIN.eNodeB.sctp  "Throughput of Association 1"  ETV
vector 1087  CAIN.eNodeB.sctp  "Fast Recovery State 1:10.0.5.2"  ETV
vector 1116  CAIN.eNodeB1.sctp  "Throughput of Association 2"  ETV
vector 1136  CAIN.eNodeB1.sctp  "Fast Recovery State 2:10.0.5.1"  ETV
vector 128  CAIN.eNodeB.x2ppp[0].queue  rcvdPk:vector(packetBytes)  ETV
attr interpolationmode  none
attr title  "received packets, vector(packetBytes)"
vector 130  CAIN.eNodeB.x2ppp[0].queue  queueingTime:vector  ETV
attr interpolationmode  none
attr title  "queueing time, vector"
vector 186  CAIN.eNodeB1.x2ppp[0].queue  rcvdPk:vector(packetBytes)  ETV
attr interpolationmode  none
attr title  "received packets, vector(packetBytes)"
vector 188  CAIN.eNodeB1.x2ppp[0].queue  queueingTime:vector  ETV
attr interpolationmode  none
attr title  "queueing time, vector"
vector 137  CAIN.eNodeB.x2ppp[0].ppp  rcvdPkFromHL:vector(packetBytes)  ETV
attr interpolationmode  none
attr source  packetReceivedFromUpper
attr title  "packets received from higher layer, vector(packetBytes)"
vector 133  CAIN.eNodeB.x2ppp[0].ppp  txPk:vector(packetBytes)  ETV
attr interpolationmode  none
attr source  packetSentToLower
attr title  "packets transmitted, vector(packetBytes)"
vector 195  CAIN.eNodeB1.x2ppp[0].ppp  rcvdPkFromHL:vector(packetBytes)  ETV
attr interpolationmode  none
attr source  packetReceivedFromUpper
attr title  "packets received from higher layer, vector(packetBytes)"
vector 191  CAIN.eNodeB1.x2ppp[0].ppp  txPk:vector(packetBytes)  ETV
attr interpolationmode  none
attr source  packetSentToLower
attr title  "packets transmitted, vector(packetBytes)"
vector 192  CAIN.eNodeB1.x2ppp[0].ppp  rxPkOk:vector(packetBytes)  ETV
attr interpolationmode  none
attr source  rxPkOk
attr title  "packets received OK, vector(packetBytes)"
vector 196  CAIN.eNodeB1.x2ppp[0].ppp  passedUpPk:vector(packetBytes)  ETV
attr interpolationmode  none
attr source  packetSentToUpper
attr title  "packets passed to higher layer, vector(packetBytes)"
vector 134  CAIN.eNodeB.x2ppp[0].ppp  rxPkOk:vector(packetBytes)  ETV
attr interpolationmode  none
attr source  rxPkOk
attr title  "packets received OK, vector(packetBytes)"
vector 138  CAIN.eNodeB.x2ppp[0].ppp  passedUpPk:vector(packetBytes)  ETV
attr interpolationmode  none
attr source  packetSentToUpper
attr title  "packets passed to higher layer, vector(packetBytes)"
vector 1165  CAIN.eNodeB1.sctp  "Throughput of Association 4"  ETV
vector 1042  CAIN.eNodeB1.sctp  "Peer Rwnd 4"  ETV
vector 1185  CAIN.eNodeB1.sctp  "Fast Recovery State 5:10.0.4.1"  ETV
vector 1212  CAIN.eNodeB1.sctp  "Fast Recovery State 5:10.0.2.2"  ETV
vector 1239  CAIN.eNodeB1.sctp  "Fast Recovery State 5:10.0.5.1"  ETV
vector 1268  CAIN.eNodeB.sctp  "Throughput of Association 3"  ETV
vector 1020  CAIN.eNodeB.sctp  "Peer Rwnd 3"  ETV
vector 1288  CAIN.eNodeB.sctp  "Fast Recovery State 6:10.0.4.2"  ETV
vector 1315  CAIN.eNodeB.sctp  "Fast Recovery State 6:10.0.3.2"  ETV
vector 1342  CAIN.eNodeB.sctp  "Fast Recovery State 6:10.0.5.2"  ETV
vector 1064  CAIN.eNodeB.sctp  "Peer Rwnd 1"  ETV
vector 1369  CAIN.eNodeB.sctp  "Fast Recovery State 1:10.0.4.2"  ETV
vector 1396  CAIN.eNodeB.sctp  "Fast Recovery State 1:10.0.3.2"  ETV
vector 1113  CAIN.eNodeB1.sctp  "Peer Rwnd 2"  ETV
vector 1423  CAIN.eNodeB1.sctp  "Fast Recovery State 2:10.0.4.1"  ETV
vector 1450  CAIN.eNodeB1.sctp  "Fast Recovery State 2:10.0.2.2"  ETV
vector 1195  CAIN.eNodeB1.sctp  "Slow Start Threshold 5:10.0.2.2"  ETV
vector 1196  CAIN.eNodeB1.sctp  "Congestion Window 5:10.0.2.2"  ETV
vector 1197  CAIN.eNodeB1.sctp  "Bandwidth 5:10.0.2.2"  ETV
vector 1200  CAIN.eNodeB1.sctp  "HB Sent 5:10.0.2.2"  ETV
vector 1193  CAIN.eNodeB1.sctp  "RTO 5:10.0.2.2"  ETV
vector 1168  CAIN.eNodeB1.sctp  "Slow Start Threshold 5:10.0.4.1"  ETV
vector 1169  CAIN.eNodeB1.sctp  "Congestion Window 5:10.0.4.1"  ETV
vector 1170  CAIN.eNodeB1.sctp  "Bandwidth 5:10.0.4.1"  ETV
vector 1173  CAIN.eNodeB1.sctp  "HB Sent 5:10.0.4.1"  ETV
vector 1166  CAIN.eNodeB1.sctp  "RTO 5:10.0.4.1"  ETV
vector 1222  CAIN.eNodeB1.sctp  "Slow Start Threshold 5:10.0.5.1"  ETV
vector 1223  CAIN.eNodeB1.sctp  "Congestion Window 5:10.0.5.1"  ETV
vector 1224  CAIN.eNodeB1.sctp  "Bandwidth 5:10.0.5.1"  ETV
vector 1220  CAIN.eNodeB1.sctp  "RTO 5:10.0.5.1"  ETV
vector 1298  CAIN.eNodeB.sctp  "Slow Start Threshold 6:10.0.3.2"  ETV
vector 1299  CAIN.eNodeB.sctp  "Congestion Window 6:10.0.3.2"  ETV
vector 1300  CAIN.eNodeB.sctp  "Bandwidth 6:10.0.3.2"  ETV
vector 1303  CAIN.eNodeB.sctp  "HB Sent 6:10.0.3.2"  ETV
vector 1296  CAIN.eNodeB.sctp  "RTO 6:10.0.3.2"  ETV
vector 1271  CAIN.eNodeB.sctp  "Slow Start Threshold 6:10.0.4.2"  ETV
vector 1272  CAIN.eNodeB.sctp  "Congestion Window 6:10.0.4.2"  ETV
vector 1273  CAIN.eNodeB.sctp  "Bandwidth 6:10.0.4.2"  ETV
vector 1276  CAIN.eNodeB.sctp  "HB Sent 6:10.0.4.2"  ETV
vector 1269  CAIN.eNodeB.sctp  "RTO 6:10.0.4.2"  ETV
vector 1325  CAIN.eNodeB.sctp  "Slow Start Threshold 6:10.0.5.2"  ETV
vector 1326  CAIN.eNodeB.sctp  "Congestion Window 6:10.0.5.2"  ETV
vector 1327  CAIN.eNodeB.sctp  "Bandwidth 6:10.0.5.2"  ETV
vector 1323  CAIN.eNodeB.sctp  "RTO 6:10.0.5.2"  ETV
vector 1076  CAIN.eNodeB.sctp  "HB ACK Sent 1:10.0.5.2"  ETV
vector 1077  CAIN.eNodeB.sctp  "HB Received 1:10.0.5.2"  ETV
vector 1125  CAIN.eNodeB1.sctp  "HB ACK Sent 2:10.0.5.1"  ETV
vector 1126  CAIN.eNodeB1.sctp  "HB Received 2:10.0.5.1"  ETV
vector 1379  CAIN.eNodeB.sctp  "Slow Start Threshold 1:10.0.3.2"  ETV
vector 1380  CAIN.eNodeB.sctp  "Congestion Window 1:10.0.3.2"  ETV
vector 1381  CAIN.eNodeB.sctp  "Bandwidth 1:10.0.3.2"  ETV
vector 1384  CAIN.eNodeB.sctp  "HB Sent 1:10.0.3.2"  ETV
vector 1377  CAIN.eNodeB.sctp  "RTO 1:10.0.3.2"  ETV
vector 1352  CAIN.eNodeB.sctp  "Slow Start Threshold 1:10.0.4.2"  ETV
vector 1353  CAIN.eNodeB.sctp  "Congestion Window 1:10.0.4.2"  ETV
vector 1354  CAIN.eNodeB.sctp  "Bandwidth 1:10.0.4.2"  ETV
vector 1357  CAIN.eNodeB.sctp  "HB Sent 1:10.0.4.2"  ETV
vector 1350  CAIN.eNodeB.sctp  "RTO 1:10.0.4.2"  ETV
vector 1070  CAIN.eNodeB.sctp  "Slow Start Threshold 1:10.0.5.2"  ETV
vector 1071  CAIN.eNodeB.sctp  "Congestion Window 1:10.0.5.2"  ETV
vector 1072  CAIN.eNodeB.sctp  "Bandwidth 1:10.0.5.2"  ETV
vector 1068  CAIN.eNodeB.sctp  "RTO 1:10.0.5.2"  ETV
vector 1433  CAIN.eNodeB1.sctp  "Slow Start Threshold 2:10.0.2.2"  ETV
vector 1434  CAIN.eNodeB1.sctp  "Congestion Window 2:10.0.2.2"  ETV
vector 1435  CAIN.eNodeB1.sctp  "Bandwidth 2:10.0.2.2"  ETV
vector 1438  CAIN.eNodeB1.sctp  "HB Sent 2:10.0.2.2"  ETV
vector 1431  CAIN.eNodeB1.sctp  "RTO 2:10.0.2.2"  ETV
vector 1406  CAIN.eNodeB1.sctp  "Slow Start Threshold 2:10.0.4.1"  ETV
vector 1407  CAIN.eNodeB1.sctp  "Congestion Window 2:10.0.4.1"  ETV
vector 1408  CAIN.eNodeB1.sctp  "Bandwidth 2:10.0.4.1"  ETV
vector 1411  CAIN.eNodeB1.sctp  "HB Sent 2:10.0.4.1"  ETV
vector 1404  CAIN.eNodeB1.sctp  "RTO 2:10.0.4.1"  ETV
vector 1119  CAIN.eNodeB1.sctp  "Slow Start Threshold 2:10.0.5.1"  ETV
vector 1120  CAIN.eNodeB1.sctp  "Congestion Window 2:10.0.5.1"  ETV
vector 1121  CAIN.eNodeB1.sctp  "Bandwidth 2:10.0.5.1"  ETV
vector 1117  CAIN.eNodeB1.sctp  "RTO 2:10.0.5.1"  ETV
vector 1333  CAIN.eNodeB.sctp  "HB ACK Received 6:10.0.5.2"  ETV
vector 1324  CAIN.eNodeB.sctp  "RTT 6:10.0.5.2"  ETV
vector 1230  CAIN.eNodeB1.sctp  "HB ACK Received 5:10.0.5.1"  ETV
vector 1221  CAIN.eNodeB1.sctp  "RTT 5:10.0.5.1"  ETV
vector 1331  CAIN.eNodeB.sctp  "HB ACK Sent 6:10.0.5.2"  ETV
vector 1332  CAIN.eNodeB.sctp  "HB Received 6:10.0.5.2"  ETV
vector 1228  CAIN.eNodeB1.sctp  "HB ACK Sent 5:10.0.5.1"  ETV
vector 1229  CAIN.eNodeB1.sctp  "HB Received 5:10.0.5.1"  ETV
vector 1127  CAIN.eNodeB1.sctp  "HB ACK Received 2:10.0.5.1"  ETV
vector 1118  CAIN.eNodeB1.sctp  "RTT 2:10.0.5.1"  ETV
vector 1078  CAIN.eNodeB.sctp  "HB ACK Received 1:10.0.5.2"  ETV
vector 1069  CAIN.eNodeB.sctp  "RTT 1:10.0.5.2"  ETV
vector 96  CAIN.eNodeB.nic.mac  receivedPacketFromLowerLayer:vector(packetBytes)  ETV
attr interpolationmode  none
attr source  receivedPacketFromLowerLayer
vector 1465  CAIN.eNodeB.sctp  "SendQueue of Association 6"  ETV
vector 1328  CAIN.eNodeB.sctp  "TSN Sent 6:10.0.5.2"  ETV
vector 1335  CAIN.eNodeB.sctp  "Outstanding Bytes 6:10.0.5.2"  ETV
vector 1008  CAIN.eNodeB.sctp  "Outstanding Bytes 3:Total"  ETV
vector 1334  CAIN.eNodeB.sctp  "Queued Sent Bytes 6:10.0.5.2"  ETV
vector 1007  CAIN.eNodeB.sctp  "Queued Sent Bytes 3:Total"  ETV
vector 1123  CAIN.eNodeB1.sctp  "TSN Received 2:10.0.5.1"  ETV
vector 1099  CAIN.eNodeB1.sctp  "Queued Received Bytes 2:Total"  ETV
vector 1095  CAIN.eNodeB1.sctp  "Advertised Receiver Window 2"  ETV
vector 1104  CAIN.eNodeB1.sctp  "Number of Total Gap Blocks Stored 2"  ETV
vector 1105  CAIN.eNodeB1.sctp  "Number of Revokable Gap Blocks Stored 2"  ETV
vector 1106  CAIN.eNodeB1.sctp  "Number of Non-Revokable Gap Blocks Stored 2"  ETV
vector 1107  CAIN.eNodeB1.sctp  "Number of Duplicate TSNs Stored 2"  ETV
vector 1111  CAIN.eNodeB1.sctp  "Length of SACK Sent 2"  ETV
vector 1108  CAIN.eNodeB1.sctp  "Number of Revokable Gap Blocks Sent 2"  ETV
vector 1109  CAIN.eNodeB1.sctp  "Number of Non-Revokable Gap Blocks Sent 2"  ETV
vector 1110  CAIN.eNodeB1.sctp  "Number of Duplicate TSNs Sent 2"  ETV
vector 1115  CAIN.eNodeB1.sctp  "End to End Delay of Association 2"  ETV
vector 199  CAIN.eNodeB1.x2App[0].client  rcvdPk:vector(packetBytes)  ETV
attr interpolationmode  none
attr source  rcvdPk
attr title  "packets received, vector(packetBytes)"
vector 1464  CAIN.eNodeB.sctp  "Number of Gap Blocks in Last SACK of Association 6"  ETV
vector 1009  CAIN.eNodeB.sctp  "Number of Revokable Gap Blocks in SACK 3"  ETV
vector 1010  CAIN.eNodeB.sctp  "Number of Non-Revokable Gap Blocks in SACK 3"  ETV
vector 1345  CAIN.eNodeB.sctp  "TSN Acked CumAck 6:10.0.5.2"  ETV
vector 1311  CAIN.eNodeB.sctp  "Number of Gap Acked Chunks in Last SACK 6:10.0.3.2"  ETV
vector 1312  CAIN.eNodeB.sctp  "Number of Non-Revokable Gap Acked Chunks in Last SACK 6:10.0.3.2"  ETV
vector 1313  CAIN.eNodeB.sctp  "Number of Gap Missed Chunks in Last SACK 6:10.0.3.2"  ETV
vector 1284  CAIN.eNodeB.sctp  "Number of Gap Acked Chunks in Last SACK 6:10.0.4.2"  ETV
vector 1285  CAIN.eNodeB.sctp  "Number of Non-Revokable Gap Acked Chunks in Last SACK 6:10.0.4.2"  ETV
vector 1286  CAIN.eNodeB.sctp  "Number of Gap Missed Chunks in Last SACK 6:10.0.4.2"  ETV
vector 1338  CAIN.eNodeB.sctp  "Number of Gap Acked Chunks in Last SACK 6:10.0.5.2"  ETV
vector 1339  CAIN.eNodeB.sctp  "Number of Non-Revokable Gap Acked Chunks in Last SACK 6:10.0.5.2"  ETV
vector 1340  CAIN.eNodeB.sctp  "Number of Gap Missed Chunks in Last SACK 6:10.0.5.2"  ETV
vector 1019  CAIN.eNodeB.sctp  "Arwnd in Last SACK 3"  ETV
vector 1347  CAIN.eNodeB.sctp  "TSN PseudoCumAck 6:10.0.5.2"  ETV
vector 1348  CAIN.eNodeB.sctp  "TSN RTXPseudoCumAck 6:10.0.5.2"  ETV
vector 1341  CAIN.eNodeB.sctp  "Partial Bytes Acked 6:10.0.5.2"  ETV
vector 1493  CAIN.ueD2DTx[13].tcp  tcpRcvQueueBytes  ETV
vector 1480  CAIN.ueD2DTx[13].tcp  "advertised window"  ETV
vector 1479  CAIN.ueD2DTx[13].tcp  "receive window"  ETV
vector 1482  CAIN.ueD2DTx[13].tcp  "sent ack"  ETV
vector 621  CAIN.ueD2DTx[13].nic.pdcpRrc  receivedPacketFromUpperLayer:vector(packetBytes)  ETV
attr interpolationmode  none
attr source  receivedPacketFromUpperLayer
vector 624  CAIN.ueD2DTx[13].nic.pdcpRrc  sentPacketToLowerLayer:vector(packetBytes)  ETV
attr interpolationmode  none
attr source  sentPacketToLowerLayer
vector 625  CAIN.ueD2DTx[13].nic.mac  receivedPacketFromUpperLayer:vector(packetBytes)  ETV
attr interpolationmode  none
attr source  receivedPacketFromUpperLayer
vector 635  CAIN.ueD2DTx[13].nic.mac  CainHopMessageSent:vector  ETV
attr interpolationmode  none
attr title  "# of Sent CAIN hop message, vector"
vector 628  CAIN.ueD2DTx[13].nic.mac  sentPacketToLowerLayer:vector(packetBytes)  ETV
attr interpolationmode  none
attr source  sentPacketToLowerLayer
vector 1517  CAIN.ueD2DTx[19].tcp  tcpRcvQueueBytes  ETV
vector 1504  CAIN.ueD2DTx[19].tcp  "advertised window"  ETV
vector 1503  CAIN.ueD2DTx[19].tcp  "receive window"  ETV
vector 1506  CAIN.ueD2DTx[19].tcp  "sent ack"  ETV
vector 813  CAIN.ueD2DTx[19].nic.pdcpRrc  receivedPacketFromUpperLayer:vector(packetBytes)  ETV
attr interpolationmode  none
attr source  receivedPacketFromUpperLayer
vector 816  CAIN.ueD2DTx[19].nic.pdcpRrc  sentPacketToLowerLayer:vector(packetBytes)  ETV
attr interpolationmode  none
attr source  sentPacketToLowerLayer
vector 817  CAIN.ueD2DTx[19].nic.mac  receivedPacketFromUpperLayer:vector(packetBytes)  ETV
attr interpolationmode  none
attr source  receivedPacketFromUpperLayer
vector 1541  CAIN.ueD2DTx[12].tcp  tcpRcvQueueBytes  ETV
vector 1528  CAIN.ueD2DTx[12].tcp  "advertised window"  ETV
vector 1527  CAIN.ueD2DTx[12].tcp  "receive window"  ETV
vector 1530  CAIN.ueD2DTx[12].tcp  "sent ack"  ETV
vector 589  CAIN.ueD2DTx[12].nic.pdcpRrc  receivedPacketFromUpperLayer:vector(packetBytes)  ETV
attr interpolationmode  none
attr source  receivedPacketFromUpperLayer
vector 592  CAIN.ueD2DTx[12].nic.pdcpRrc  sentPacketToLowerLayer:vector(packetBytes)  ETV
attr interpolationmode  none
attr source  sentPacketToLowerLayer
vector 593  CAIN.ueD2DTx[12].nic.mac  receivedPacketFromUpperLayer:vector(packetBytes)  ETV
attr interpolationmode  none
attr source  receivedPacketFromUpperLayer
vector 596  CAIN.ueD2DTx[12].nic.mac  sentPacketToLowerLayer:vector(packetBytes)  ETV
attr interpolationmode  none
attr source  sentPacketToLowerLayer
vector 827  CAIN.ueD2DTx[19].nic.mac  CainHopMessageSent:vector  ETV
attr interpolationmode  none
attr title  "# of Sent CAIN hop message, vector"
vector 820  CAIN.ueD2DTx[19].nic.mac  sentPacketToLowerLayer:vector(packetBytes)  ETV
attr interpolationmode  none
attr source  sentPacketToLowerLayer
vector 338  CAIN.ueD2DTx[4].nic.mac  receivedPacketFromLowerLayer:vector(packetBytes)  ETV
attr interpolationmode  none
attr source  receivedPacketFromLowerLayer
vector 340  CAIN.ueD2DTx[4].nic.mac  sentPacketToLowerLayer:vector(packetBytes)  ETV
attr interpolationmode  none
attr source  sentPacketToLowerLayer
vector 111  CAIN.eNodeB.nic.mac  racpkt:vector  ETV
attr interpolationmode  none
attr title  "eNB received racpkt message, vector"
vector 112  CAIN.eNodeB.nic.mac  racDistanceSignal:vector  ETV
attr interpolationmode  none
attr title  "Rac distance to enb, vector"
vector 113  CAIN.eNodeB.nic.mac  racServedDevsSignal:vector  ETV
attr interpolationmode  none
attr title  "# of devices served on rac arriavall, vector"
vector 98  CAIN.eNodeB.nic.mac  sentPacketToLowerLayer:vector(packetBytes)  ETV
attr interpolationmode  none
attr source  sentPacketToLowerLayer
vector 594  CAIN.ueD2DTx[12].nic.mac  receivedPacketFromLowerLayer:vector(packetBytes)  ETV
attr interpolationmode  none
attr source  receivedPacketFromLowerLayer
vector 106  CAIN.eNodeB.nic.mac  DistanceSignal:vector  ETV
attr interpolationmode  none
attr title  "Distance to enb, vector"
vector 101  CAIN.eNodeB.nic.mac  CainHopMessage:vector  ETV
attr interpolationmode  none
attr title  "eNB received CAIN hop message, vector"
vector 595  CAIN.ueD2DTx[12].nic.mac  sentPacketToUpperLayer:vector(packetBytes)  ETV
attr interpolationmode  none
attr source  sentPacketToUpperLayer
vector 109  CAIN.eNodeB.nic.mac  ServedHopDevs:vector  ETV
attr interpolationmode  none
attr title  "# of devices served on hop forwarding, vector"
vector 1565  CAIN.ueD2DTx[11].tcp  tcpRcvQueueBytes  ETV
vector 1552  CAIN.ueD2DTx[11].tcp  "advertised window"  ETV
vector 1551  CAIN.ueD2DTx[11].tcp  "receive window"  ETV
vector 1554  CAIN.ueD2DTx[11].tcp  "sent ack"  ETV
vector 557  CAIN.ueD2DTx[11].nic.pdcpRrc  receivedPacketFromUpperLayer:vector(packetBytes)  ETV
attr interpolationmode  none
attr source  receivedPacketFromUpperLayer
vector 560  CAIN.ueD2DTx[11].nic.pdcpRrc  sentPacketToLowerLayer:vector(packetBytes)  ETV
attr interpolationmode  none
attr source  sentPacketToLowerLayer
vector 561  CAIN.ueD2DTx[11].nic.mac  receivedPacketFromUpperLayer:vector(packetBytes)  ETV
attr interpolationmode  none
attr source  receivedPacketFromUpperLayer
vector 571  CAIN.ueD2DTx[11].nic.mac  CainHopMessageSent:vector  ETV
attr interpolationmode  none
attr title  "# of Sent CAIN hop message, vector"
vector 564  CAIN.ueD2DTx[11].nic.mac  sentPacketToLowerLayer:vector(packetBytes)  ETV
attr interpolationmode  none
attr source  sentPacketToLowerLayer
vector 1589  CAIN.ueD2DTx[7].tcp  tcpRcvQueueBytes  ETV
vector 1576  CAIN.ueD2DTx[7].tcp  "advertised window"  ETV
vector 1575  CAIN.ueD2DTx[7].tcp  "receive window"  ETV
vector 1578  CAIN.ueD2DTx[7].tcp  "sent ack"  ETV
vector 429  CAIN.ueD2DTx[7].nic.pdcpRrc  receivedPacketFromUpperLayer:vector(packetBytes)  ETV
attr interpolationmode  none
attr source  receivedPacketFromUpperLayer
vector 432  CAIN.ueD2DTx[7].nic.pdcpRrc  sentPacketToLowerLayer:vector(packetBytes)  ETV
attr interpolationmode  none
attr source  sentPacketToLowerLayer
vector 433  CAIN.ueD2DTx[7].nic.mac  receivedPacketFromUpperLayer:vector(packetBytes)  ETV
attr interpolationmode  none
attr source  receivedPacketFromUpperLayer
vector 443  CAIN.ueD2DTx[7].nic.mac  CainHopMessageSent:vector  ETV
attr interpolationmode  none
attr title  "# of Sent CAIN hop message, vector"
vector 436  CAIN.ueD2DTx[7].nic.mac  sentPacketToLowerLayer:vector(packetBytes)  ETV
attr interpolationmode  none
attr source  sentPacketToLowerLayer
vector 1613  CAIN.ueD2DTx[6].tcp  tcpRcvQueueBytes  ETV
vector 1600  CAIN.ueD2DTx[6].tcp  "advertised window"  ETV
vector 1599  CAIN.ueD2DTx[6].tcp  "receive window"  ETV
vector 1602  CAIN.ueD2DTx[6].tcp  "sent ack"  ETV
vector 397  CAIN.ueD2DTx[6].nic.pdcpRrc  receivedPacketFromUpperLayer:vector(packetBytes)  ETV
attr interpolationmode  none
attr source  receivedPacketFromUpperLayer
vector 400  CAIN.ueD2DTx[6].nic.pdcpRrc  sentPacketToLowerLayer:vector(packetBytes)  ETV
attr interpolationmode  none
attr source  sentPacketToLowerLayer
vector 401  CAIN.ueD2DTx[6].nic.mac  receivedPacketFromUpperLayer:vector(packetBytes)  ETV
attr interpolationmode  none
attr source  receivedPacketFromUpperLayer
vector 411  CAIN.ueD2DTx[6].nic.mac  CainHopMessageSent:vector  ETV
attr interpolationmode  none
attr title  "# of Sent CAIN hop message, vector"
vector 404  CAIN.ueD2DTx[6].nic.mac  sentPacketToLowerLayer:vector(packetBytes)  ETV
attr interpolationmode  none
attr source  sentPacketToLowerLayer
vector 1637  CAIN.ueD2DTx[20].tcp  tcpRcvQueueBytes  ETV
vector 1624  CAIN.ueD2DTx[20].tcp  "advertised window"  ETV
vector 1623  CAIN.ueD2DTx[20].tcp  "receive window"  ETV
vector 1626  CAIN.ueD2DTx[20].tcp  "sent ack"  ETV
vector 845  CAIN.ueD2DTx[20].nic.pdcpRrc  receivedPacketFromUpperLayer:vector(packetBytes)  ETV
attr interpolationmode  none
attr source  receivedPacketFromUpperLayer
vector 848  CAIN.ueD2DTx[20].nic.pdcpRrc  sentPacketToLowerLayer:vector(packetBytes)  ETV
attr interpolationmode  none
attr source  sentPacketToLowerLayer
vector 849  CAIN.ueD2DTx[20].nic.mac  receivedPacketFromUpperLayer:vector(packetBytes)  ETV
attr interpolationmode  none
attr source  receivedPacketFromUpperLayer
vector 859  CAIN.ueD2DTx[20].nic.mac  CainHopMessageSent:vector  ETV
attr interpolationmode  none
attr title  "# of Sent CAIN hop message, vector"
vector 852  CAIN.ueD2DTx[20].nic.mac  sentPacketToLowerLayer:vector(packetBytes)  ETV
attr interpolationmode  none
attr source  sentPacketToLowerLayer
vector 946  CAIN.ueD2DTx[23].nic.mac  receivedPacketFromLowerLayer:vector(packetBytes)  ETV
attr interpolationmode  none
attr source  receivedPacketFromLowerLayer
vector 948  CAIN.ueD2DTx[23].nic.mac  sentPacketToLowerLayer:vector(packetBytes)  ETV
attr interpolationmode  none
attr source  sentPacketToLowerLayer
vector 953  CAIN.ueD2DTx[23].nic.mac  DropedHopMessage:vector  ETV
attr interpolationmode  none
attr title  "Droped Hop CAIN message due to RB not available, vector"
vector 1661  CAIN.ueD2DTx[2].tcp  tcpRcvQueueBytes  ETV
vector 1648  CAIN.ueD2DTx[2].tcp  "advertised window"  ETV
vector 1647  CAIN.ueD2DTx[2].tcp  "receive window"  ETV
vector 1650  CAIN.ueD2DTx[2].tcp  "sent ack"  ETV
vector 269  CAIN.ueD2DTx[2].nic.pdcpRrc  receivedPacketFromUpperLayer:vector(packetBytes)  ETV
attr interpolationmode  none
attr source  receivedPacketFromUpperLayer
vector 272  CAIN.ueD2DTx[2].nic.pdcpRrc  sentPacketToLowerLayer:vector(packetBytes)  ETV
attr interpolationmode  none
attr source  sentPacketToLowerLayer
vector 273  CAIN.ueD2DTx[2].nic.mac  receivedPacketFromUpperLayer:vector(packetBytes)  ETV
attr interpolationmode  none
attr source  receivedPacketFromUpperLayer
vector 283  CAIN.ueD2DTx[2].nic.mac  CainHopMessageSent:vector  ETV
attr interpolationmode  none
attr title  "# of Sent CAIN hop message, vector"
vector 276  CAIN.ueD2DTx[2].nic.mac  sentPacketToLowerLayer:vector(packetBytes)  ETV
attr interpolationmode  none
attr source  sentPacketToLowerLayer
vector 1685  CAIN.ueD2DTx[10].tcp  tcpRcvQueueBytes  ETV
vector 1672  CAIN.ueD2DTx[10].tcp  "advertised window"  ETV
vector 1671  CAIN.ueD2DTx[10].tcp  "receive window"  ETV
vector 1674  CAIN.ueD2DTx[10].tcp  "sent ack"  ETV
vector 525  CAIN.ueD2DTx[10].nic.pdcpRrc  receivedPacketFromUpperLayer:vector(packetBytes)  ETV
attr interpolationmode  none
attr source  receivedPacketFromUpperLayer
vector 528  CAIN.ueD2DTx[10].nic.pdcpRrc  sentPacketToLowerLayer:vector(packetBytes)  ETV
attr interpolationmode  none
attr source  sentPacketToLowerLayer
vector 529  CAIN.ueD2DTx[10].nic.mac  receivedPacketFromUpperLayer:vector(packetBytes)  ETV
attr interpolationmode  none
attr source  receivedPacketFromUpperLayer
vector 1709  CAIN.ueD2DTx[14].tcp  tcpRcvQueueBytes  ETV
vector 1696  CAIN.ueD2DTx[14].tcp  "advertised window"  ETV
vector 1695  CAIN.ueD2DTx[14].tcp  "receive window"  ETV
vector 1698  CAIN.ueD2DTx[14].tcp  "sent ack"  ETV
vector 653  CAIN.ueD2DTx[14].nic.pdcpRrc  receivedPacketFromUpperLayer:vector(packetBytes)  ETV
attr interpolationmode  none
attr source  receivedPacketFromUpperLayer
vector 656  CAIN.ueD2DTx[14].nic.pdcpRrc  sentPacketToLowerLayer:vector(packetBytes)  ETV
attr interpolationmode  none
attr source  sentPacketToLowerLayer
vector 657  CAIN.ueD2DTx[14].nic.mac  receivedPacketFromUpperLayer:vector(packetBytes)  ETV
attr interpolationmode  none
attr source  receivedPacketFromUpperLayer
vector 539  CAIN.ueD2DTx[10].nic.mac  CainHopMessageSent:vector  ETV
attr interpolationmode  none
attr title  "# of Sent CAIN hop message, vector"
vector 532  CAIN.ueD2DTx[10].nic.mac  sentPacketToLowerLayer:vector(packetBytes)  ETV
attr interpolationmode  none
attr source  sentPacketToLowerLayer
vector 667  CAIN.ueD2DTx[14].nic.mac  CainHopMessageSent:vector  ETV
attr interpolationmode  none
attr title  "# of Sent CAIN hop message, vector"
vector 660  CAIN.ueD2DTx[14].nic.mac  sentPacketToLowerLayer:vector(packetBytes)  ETV
attr interpolationmode  none
attr source  sentPacketToLowerLayer
vector 1733  CAIN.ueD2DTx[4].tcp  tcpRcvQueueBytes  ETV
vector 1720  CAIN.ueD2DTx[4].tcp  "advertised window"  ETV
vector 1719  CAIN.ueD2DTx[4].tcp  "receive window"  ETV
vector 1722  CAIN.ueD2DTx[4].tcp  "sent ack"  ETV
vector 333  CAIN.ueD2DTx[4].nic.pdcpRrc  receivedPacketFromUpperLayer:vector(packetBytes)  ETV
attr interpolationmode  none
attr source  receivedPacketFromUpperLayer
vector 336  CAIN.ueD2DTx[4].nic.pdcpRrc  sentPacketToLowerLayer:vector(packetBytes)  ETV
attr interpolationmode  none
attr source  sentPacketToLowerLayer
vector 337  CAIN.ueD2DTx[4].nic.mac  receivedPacketFromUpperLayer:vector(packetBytes)  ETV
attr interpolationmode  none
attr source  receivedPacketFromUpperLayer
vector 346  CAIN.ueD2DTx[4].nic.mac  CainMessageSent:vector  ETV
attr interpolationmode  none
attr title  "# of Sent CAIN message, vector"
vector 100  CAIN.eNodeB.nic.mac  CainMessage:vector  ETV
attr interpolationmode  none
attr title  "eNB received CAIN message, vector"
vector 1757  CAIN.ueD2DTx[21].tcp  tcpRcvQueueBytes  ETV
vector 1744  CAIN.ueD2DTx[21].tcp  "advertised window"  ETV
vector 1743  CAIN.ueD2DTx[21].tcp  "receive window"  ETV
vector 1746  CAIN.ueD2DTx[21].tcp  "sent ack"  ETV
vector 877  CAIN.ueD2DTx[21].nic.pdcpRrc  receivedPacketFromUpperLayer:vector(packetBytes)  ETV
attr interpolationmode  none
attr source  receivedPacketFromUpperLayer
vector 880  CAIN.ueD2DTx[21].nic.pdcpRrc  sentPacketToLowerLayer:vector(packetBytes)  ETV
attr interpolationmode  none
attr source  sentPacketToLowerLayer
vector 881  CAIN.ueD2DTx[21].nic.mac  receivedPacketFromUpperLayer:vector(packetBytes)  ETV
attr interpolationmode  none
attr source  receivedPacketFromUpperLayer
vector 891  CAIN.ueD2DTx[21].nic.mac  CainHopMessageSent:vector  ETV
attr interpolationmode  none
attr title  "# of Sent CAIN hop message, vector"
vector 884  CAIN.ueD2DTx[21].nic.mac  sentPacketToLowerLayer:vector(packetBytes)  ETV
attr interpolationmode  none
attr source  sentPacketToLowerLayer
vector 1781  CAIN.ueD2DTx[24].tcp  tcpRcvQueueBytes  ETV
vector 1768  CAIN.ueD2DTx[24].tcp  "advertised window"  ETV
vector 1767  CAIN.ueD2DTx[24].tcp  "receive window"  ETV
vector 1770  CAIN.ueD2DTx[24].tcp  "sent ack"  ETV
vector 973  CAIN.ueD2DTx[24].nic.pdcpRrc  receivedPacketFromUpperLayer:vector(packetBytes)  ETV
attr interpolationmode  none
attr source  receivedPacketFromUpperLayer
vector 976  CAIN.ueD2DTx[24].nic.pdcpRrc  sentPacketToLowerLayer:vector(packetBytes)  ETV
attr interpolationmode  none
attr source  sentPacketToLowerLayer
vector 977  CAIN.ueD2DTx[24].nic.mac  receivedPacketFromUpperLayer:vector(packetBytes)  ETV
attr interpolationmode  none
attr source  receivedPacketFromUpperLayer
vector 980  CAIN.ueD2DTx[24].nic.mac  sentPacketToLowerLayer:vector(packetBytes)  ETV
attr interpolationmode  none
attr source  sentPacketToLowerLayer
vector 108  CAIN.eNodeB.nic.mac  ServedDevs:vector  ETV
attr interpolationmode  none
attr title  "# of devices served on cain forwarding, vector"
vector 978  CAIN.ueD2DTx[24].nic.mac  receivedPacketFromLowerLayer:vector(packetBytes)  ETV
attr interpolationmode  none
attr source  receivedPacketFromLowerLayer
vector 1805  CAIN.ueD2DTx[8].tcp  tcpRcvQueueBytes  ETV
vector 1792  CAIN.ueD2DTx[8].tcp  "advertised window"  ETV
vector 1791  CAIN.ueD2DTx[8].tcp  "receive window"  ETV
vector 1794  CAIN.ueD2DTx[8].tcp  "sent ack"  ETV
vector 461  CAIN.ueD2DTx[8].nic.pdcpRrc  receivedPacketFromUpperLayer:vector(packetBytes)  ETV
attr interpolationmode  none
attr source  receivedPacketFromUpperLayer
vector 464  CAIN.ueD2DTx[8].nic.pdcpRrc  sentPacketToLowerLayer:vector(packetBytes)  ETV
attr interpolationmode  none
attr source  sentPacketToLowerLayer
vector 465  CAIN.ueD2DTx[8].nic.mac  receivedPacketFromUpperLayer:vector(packetBytes)  ETV
attr interpolationmode  none
attr source  receivedPacketFromUpperLayer
vector 474  CAIN.ueD2DTx[8].nic.mac  CainMessageSent:vector  ETV
attr interpolationmode  none
attr title  "# of Sent CAIN message, vector"
vector 468  CAIN.ueD2DTx[8].nic.mac  sentPacketToLowerLayer:vector(packetBytes)  ETV
attr interpolationmode  none
attr source  sentPacketToLowerLayer
vector 1829  CAIN.ueD2DTx[9].tcp  tcpRcvQueueBytes  ETV
vector 1816  CAIN.ueD2DTx[9].tcp  "advertised window"  ETV
vector 1815  CAIN.ueD2DTx[9].tcp  "receive window"  ETV
vector 1818  CAIN.ueD2DTx[9].tcp  "sent ack"  ETV
vector 493  CAIN.ueD2DTx[9].nic.pdcpRrc  receivedPacketFromUpperLayer:vector(packetBytes)  ETV
attr interpolationmode  none
attr source  receivedPacketFromUpperLayer
vector 496  CAIN.ueD2DTx[9].nic.pdcpRrc  sentPacketToLowerLayer:vector(packetBytes)  ETV
attr interpolationmode  none
attr source  sentPacketToLowerLayer
vector 497  CAIN.ueD2DTx[9].nic.mac  receivedPacketFromUpperLayer:vector(packetBytes)  ETV
attr interpolationmode  none
attr source  receivedPacketFromUpperLayer
vector 500  CAIN.ueD2DTx[9].nic.mac  sentPacketToLowerLayer:vector(packetBytes)  ETV
attr interpolationmode  none
attr source  sentPacketToLowerLayer
vector 690  CAIN.ueD2DTx[15].nic.mac  receivedPacketFromLowerLayer:vector(packetBytes)  ETV
attr interpolationmode  none
attr source  receivedPacketFromLowerLayer
vector 692  CAIN.ueD2DTx[15].nic.mac  sentPacketToLowerLayer:vector(packetBytes)  ETV
attr interpolationmode  none
attr source  sentPacketToLowerLayer
vector 498  CAIN.ueD2DTx[9].nic.mac  receivedPacketFromLowerLayer:vector(packetBytes)  ETV
attr interpolationmode  none
attr source  receivedPacketFromLowerLayer
vector 696  CAIN.ueD2DTx[15].nic.mac  DropedCainMessage:vector  ETV
attr interpolationmode  none
attr title  "Droped CAIN message due to RB not available, vector"
vector 1853  CAIN.ueD2DTx[15].tcp  tcpRcvQueueBytes  ETV
vector 1840  CAIN.ueD2DTx[15].tcp  "advertised window"  ETV
vector 1839  CAIN.ueD2DTx[15].tcp  "receive window"  ETV
vector 1842  CAIN.ueD2DTx[15].tcp  "sent ack"  ETV
vector 685  CAIN.ueD2DTx[15].nic.pdcpRrc  receivedPacketFromUpperLayer:vector(packetBytes)  ETV
attr interpolationmode  none
attr source  receivedPacketFromUpperLayer
vector 688  CAIN.ueD2DTx[15].nic.pdcpRrc  sentPacketToLowerLayer:vector(packetBytes)  ETV
attr interpolationmode  none
attr source  sentPacketToLowerLayer
vector 689  CAIN.ueD2DTx[15].nic.mac  receivedPacketFromUpperLayer:vector(packetBytes)  ETV
attr interpolationmode  none
attr source  receivedPacketFromUpperLayer
vector 1877  CAIN.ueD2DTx[17].tcp  tcpRcvQueueBytes  ETV
vector 1864  CAIN.ueD2DTx[17].tcp  "advertised window"  ETV
vector 1863  CAIN.ueD2DTx[17].tcp  "receive window"  ETV
vector 1866  CAIN.ueD2DTx[17].tcp  "sent ack"  ETV
vector 749  CAIN.ueD2DTx[17].nic.pdcpRrc  receivedPacketFromUpperLayer:vector(packetBytes)  ETV
attr interpolationmode  none
attr source  receivedPacketFromUpperLayer
vector 752  CAIN.ueD2DTx[17].nic.pdcpRrc  sentPacketToLowerLayer:vector(packetBytes)  ETV
attr interpolationmode  none
attr source  sentPacketToLowerLayer
vector 753  CAIN.ueD2DTx[17].nic.mac  receivedPacketFromUpperLayer:vector(packetBytes)  ETV
attr interpolationmode  none
attr source  receivedPacketFromUpperLayer
vector 1901  CAIN.ueD2DTx[0].tcp  tcpRcvQueueBytes  ETV
vector 1888  CAIN.ueD2DTx[0].tcp  "advertised window"  ETV
vector 1887  CAIN.ueD2DTx[0].tcp  "receive window"  ETV
vector 1890  CAIN.ueD2DTx[0].tcp  "sent ack"  ETV
vector 205  CAIN.ueD2DTx[0].nic.pdcpRrc  receivedPacketFromUpperLayer:vector(packetBytes)  ETV
attr interpolationmode  none
attr source  receivedPacketFromUpperLayer
vector 208  CAIN.ueD2DTx[0].nic.pdcpRrc  sentPacketToLowerLayer:vector(packetBytes)  ETV
attr interpolationmode  none
attr source  sentPacketToLowerLayer
vector 209  CAIN.ueD2DTx[0].nic.mac  receivedPacketFromUpperLayer:vector(packetBytes)  ETV
attr interpolationmode  none
attr source  receivedPacketFromUpperLayer
vector 219  CAIN.ueD2DTx[0].nic.mac  CainHopMessageSent:vector  ETV
attr interpolationmode  none
attr title  "# of Sent CAIN hop message, vector"
vector 212  CAIN.ueD2DTx[0].nic.mac  sentPacketToLowerLayer:vector(packetBytes)  ETV
attr interpolationmode  none
attr source  sentPacketToLowerLayer
vector 499  CAIN.ueD2DTx[9].nic.mac  sentPacketToUpperLayer:vector(packetBytes)  ETV
attr interpolationmode  none
attr source  sentPacketToUpperLayer
vector 763  CAIN.ueD2DTx[17].nic.mac  CainHopMessageSent:vector  ETV
attr interpolationmode  none
attr title  "# of Sent CAIN hop message, vector"
vector 756  CAIN.ueD2DTx[17].nic.mac  sentPacketToLowerLayer:vector(packetBytes)  ETV
attr interpolationmode  none
attr source  sentPacketToLowerLayer
vector 466  CAIN.ueD2DTx[8].nic.mac  receivedPacketFromLowerLayer:vector(packetBytes)  ETV
attr interpolationmode  none
attr source  receivedPacketFromLowerLayer
vector 691  CAIN.ueD2DTx[15].nic.mac  sentPacketToUpperLayer:vector(packetBytes)  ETV
attr interpolationmode  none
attr source  sentPacketToUpperLayer
vector 1461  CAIN.eNodeB1.sctp  "SendQueue of Association 5"  ETV
vector 1225  CAIN.eNodeB1.sctp  "TSN Sent 5:10.0.5.1"  ETV
vector 1232  CAIN.eNodeB1.sctp  "Outstanding Bytes 5:10.0.5.1"  ETV
vector 1030  CAIN.eNodeB1.sctp  "Outstanding Bytes 4:Total"  ETV
vector 1231  CAIN.eNodeB1.sctp  "Queued Sent Bytes 5:10.0.5.1"  ETV
vector 1029  CAIN.eNodeB1.sctp  "Queued Sent Bytes 4:Total"  ETV
vector 1074  CAIN.eNodeB.sctp  "TSN Received 1:10.0.5.2"  ETV
vector 1050  CAIN.eNodeB.sctp  "Queued Received Bytes 1:Total"  ETV
vector 1046  CAIN.eNodeB.sctp  "Advertised Receiver Window 1"  ETV
vector 1055  CAIN.eNodeB.sctp  "Number of Total Gap Blocks Stored 1"  ETV
vector 1056  CAIN.eNodeB.sctp  "Number of Revokable Gap Blocks Stored 1"  ETV
vector 1057  CAIN.eNodeB.sctp  "Number of Non-Revokable Gap Blocks Stored 1"  ETV
vector 1058  CAIN.eNodeB.sctp  "Number of Duplicate TSNs Stored 1"  ETV
vector 1062  CAIN.eNodeB.sctp  "Length of SACK Sent 1"  ETV
vector 1059  CAIN.eNodeB.sctp  "Number of Revokable Gap Blocks Sent 1"  ETV
vector 1060  CAIN.eNodeB.sctp  "Number of Non-Revokable Gap Blocks Sent 1"  ETV
vector 1061  CAIN.eNodeB.sctp  "Number of Duplicate TSNs Sent 1"  ETV
vector 1066  CAIN.eNodeB.sctp  "End to End Delay of Association 1"  ETV
vector 141  CAIN.eNodeB.x2App[0].client  rcvdPk:vector(packetBytes)  ETV
attr interpolationmode  none
attr source  rcvdPk
attr title  "packets received, vector(packetBytes)"
vector 1460  CAIN.eNodeB1.sctp  "Number of Gap Blocks in Last SACK of Association 5"  ETV
vector 1031  CAIN.eNodeB1.sctp  "Number of Revokable Gap Blocks in SACK 4"  ETV
vector 1032  CAIN.eNodeB1.sctp  "Number of Non-Revokable Gap Blocks in SACK 4"  ETV
vector 1242  CAIN.eNodeB1.sctp  "TSN Acked CumAck 5:10.0.5.1"  ETV
vector 1208  CAIN.eNodeB1.sctp  "Number of Gap Acked Chunks in Last SACK 5:10.0.2.2"  ETV
vector 1209  CAIN.eNodeB1.sctp  "Number of Non-Revokable Gap Acked Chunks in Last SACK 5:10.0.2.2"  ETV
vector 1210  CAIN.eNodeB1.sctp  "Number of Gap Missed Chunks in Last SACK 5:10.0.2.2"  ETV
vector 1181  CAIN.eNodeB1.sctp  "Number of Gap Acked Chunks in Last SACK 5:10.0.4.1"  ETV
vector 1182  CAIN.eNodeB1.sctp  "Number of Non-Revokable Gap Acked Chunks in Last SACK 5:10.0.4.1"  ETV
vector 1183  CAIN.eNodeB1.sctp  "Number of Gap Missed Chunks in Last SACK 5:10.0.4.1"  ETV
vector 1235  CAIN.eNodeB1.sctp  "Number of Gap Acked Chunks in Last SACK 5:10.0.5.1"  ETV
vector 1236  CAIN.eNodeB1.sctp  "Number of Non-Revokable Gap Acked Chunks in Last SACK 5:10.0.5.1"  ETV
vector 1237  CAIN.eNodeB1.sctp  "Number of Gap Missed Chunks in Last SACK 5:10.0.5.1"  ETV
vector 1041  CAIN.eNodeB1.sctp  "Arwnd in Last SACK 4"  ETV
vector 1244  CAIN.eNodeB1.sctp  "TSN PseudoCumAck 5:10.0.5.1"  ETV
vector 1245  CAIN.eNodeB1.sctp  "TSN RTXPseudoCumAck 5:10.0.5.1"  ETV
vector 1238  CAIN.eNodeB1.sctp  "Partial Bytes Acked 5:10.0.5.1"  ETV
vector 1925  CAIN.ueD2DTx[1].tcp  tcpRcvQueueBytes  ETV
vector 1912  CAIN.ueD2DTx[1].tcp  "advertised window"  ETV
vector 1911  CAIN.ueD2DTx[1].tcp  "receive window"  ETV
vector 1914  CAIN.ueD2DTx[1].tcp  "sent ack"  ETV
vector 237  CAIN.ueD2DTx[1].nic.pdcpRrc  receivedPacketFromUpperLayer:vector(packetBytes)  ETV
attr interpolationmode  none
attr source  receivedPacketFromUpperLayer
vector 240  CAIN.ueD2DTx[1].nic.pdcpRrc  sentPacketToLowerLayer:vector(packetBytes)  ETV
attr interpolationmode  none
attr source  sentPacketToLowerLayer
vector 241  CAIN.ueD2DTx[1].nic.mac  receivedPacketFromUpperLayer:vector(packetBytes)  ETV
attr interpolationmode  none
attr source  receivedPacketFromUpperLayer
vector 251  CAIN.ueD2DTx[1].nic.mac  CainHopMessageSent:vector  ETV
attr interpolationmode  none
attr title  "# of Sent CAIN hop message, vector"
vector 244  CAIN.ueD2DTx[1].nic.mac  sentPacketToLowerLayer:vector(packetBytes)  ETV
attr interpolationmode  none
attr source  sentPacketToLowerLayer
vector 1949  CAIN.ueD2DTx[5].tcp  tcpRcvQueueBytes  ETV
vector 1936  CAIN.ueD2DTx[5].tcp  "advertised window"  ETV
vector 1935  CAIN.ueD2DTx[5].tcp  "receive window"  ETV
vector 1938  CAIN.ueD2DTx[5].tcp  "sent ack"  ETV
vector 365  CAIN.ueD2DTx[5].nic.pdcpRrc  receivedPacketFromUpperLayer:vector(packetBytes)  ETV
attr interpolationmode  none
attr source  receivedPacketFromUpperLayer
vector 368  CAIN.ueD2DTx[5].nic.pdcpRrc  sentPacketToLowerLayer:vector(packetBytes)  ETV
attr interpolationmode  none
attr source  sentPacketToLowerLayer
vector 369  CAIN.ueD2DTx[5].nic.mac  receivedPacketFromUpperLayer:vector(packetBytes)  ETV
attr interpolationmode  none
attr source  receivedPacketFromUpperLayer
vector 1973  CAIN.ueD2DTx[22].tcp  tcpRcvQueueBytes  ETV
vector 1960  CAIN.ueD2DTx[22].tcp  "advertised window"  ETV
vector 1959  CAIN.ueD2DTx[22].tcp  "receive window"  ETV
vector 1962  CAIN.ueD2DTx[22].tcp  "sent ack"  ETV
vector 909  CAIN.ueD2DTx[22].nic.pdcpRrc  receivedPacketFromUpperLayer:vector(packetBytes)  ETV
attr interpolationmode  none
attr source  receivedPacketFromUpperLayer
vector 912  CAIN.ueD2DTx[22].nic.pdcpRrc  sentPacketToLowerLayer:vector(packetBytes)  ETV
attr interpolationmode  none
attr source  sentPacketToLowerLayer
vector 913  CAIN.ueD2DTx[22].nic.mac  receivedPacketFromUpperLayer:vector(packetBytes)  ETV
attr interpolationmode  none
attr source  receivedPacketFromUpperLayer
vector 379  CAIN.ueD2DTx[5].nic.mac  CainHopMessageSent:vector  ETV
attr interpolationmode  none
attr title  "# of Sent CAIN hop message, vector"
vector 372  CAIN.ueD2DTx[5].nic.mac  sentPacketToLowerLayer:vector(packetBytes)  ETV
attr interpolationmode  none
attr source  sentPacketToLowerLayer
vector 923  CAIN.ueD2DTx[22].nic.mac  CainHopMessageSent:vector  ETV
attr interpolationmode  none
attr title  "# of Sent CAIN hop message, vector"
vector 916  CAIN.ueD2DTx[22].nic.mac  sentPacketToLowerLayer:vector(packetBytes)  ETV
attr interpolationmode  none
attr source  sentPacketToLowerLayer
vector 154  CAIN.eNodeB1.nic.mac  receivedPacketFromLowerLayer:vector(packetBytes)  ETV
attr interpolationmode  none
attr source  receivedPacketFromLowerLayer
vector 1997  CAIN.ueD2DTx[3].tcp  tcpRcvQueueBytes  ETV
vector 1984  CAIN.ueD2DTx[3].tcp  "advertised window"  ETV
vector 1983  CAIN.ueD2DTx[3].tcp  "receive window"  ETV
vector 1986  CAIN.ueD2DTx[3].tcp  "sent ack"  ETV
vector 301  CAIN.ueD2DTx[3].nic.pdcpRrc  receivedPacketFromUpperLayer:vector(packetBytes)  ETV
attr interpolationmode  none
attr source  receivedPacketFromUpperLayer
vector 304  CAIN.ueD2DTx[3].nic.pdcpRrc  sentPacketToLowerLayer:vector(packetBytes)  ETV
attr interpolationmode  none
attr source  sentPacketToLowerLayer
vector 305  CAIN.ueD2DTx[3].nic.mac  receivedPacketFromUpperLayer:vector(packetBytes)  ETV
attr interpolationmode  none
attr source  receivedPacketFromUpperLayer
vector 314  CAIN.ueD2DTx[3].nic.mac  CainMessageSent:vector  ETV
attr interpolationmode  none
attr title  "# of Sent CAIN message, vector"
vector 308  CAIN.ueD2DTx[3].nic.mac  sentPacketToLowerLayer:vector(packetBytes)  ETV
attr interpolationmode  none
attr source  sentPacketToLowerLayer
vector 242  CAIN.ueD2DTx[1].nic.mac  receivedPacketFromLowerLayer:vector(packetBytes)  ETV
attr interpolationmode  none
attr source  receivedPacketFromLowerLayer
vector 2021  CAIN.ueD2DTx[16].tcp  tcpRcvQueueBytes  ETV
vector 2008  CAIN.ueD2DTx[16].tcp  "advertised window"  ETV
vector 2007  CAIN.ueD2DTx[16].tcp  "receive window"  ETV
vector 2010  CAIN.ueD2DTx[16].tcp  "sent ack"  ETV
vector 717  CAIN.ueD2DTx[16].nic.pdcpRrc  receivedPacketFromUpperLayer:vector(packetBytes)  ETV
attr interpolationmode  none
attr source  receivedPacketFromUpperLayer
vector 720  CAIN.ueD2DTx[16].nic.pdcpRrc  sentPacketToLowerLayer:vector(packetBytes)  ETV
attr interpolationmode  none
attr source  sentPacketToLowerLayer
vector 721  CAIN.ueD2DTx[16].nic.mac  receivedPacketFromUpperLayer:vector(packetBytes)  ETV
attr interpolationmode  none
attr source  receivedPacketFromUpperLayer
vector 724  CAIN.ueD2DTx[16].nic.mac  sentPacketToLowerLayer:vector(packetBytes)  ETV
attr interpolationmode  none
attr source  sentPacketToLowerLayer
vector 169  CAIN.eNodeB1.nic.mac  racpkt:vector  ETV
attr interpolationmode  none
attr title  "eNB received racpkt message, vector"
vector 170  CAIN.eNodeB1.nic.mac  racDistanceSignal:vector  ETV
attr interpolationmode  none
attr title  "Rac distance to enb, vector"
vector 171  CAIN.eNodeB1.nic.mac  racServedDevsSignal:vector  ETV
attr interpolationmode  none
attr title  "# of devices served on rac arriavall, vector"
vector 156  CAIN.eNodeB1.nic.mac  sentPacketToLowerLayer:vector(packetBytes)  ETV
attr interpolationmode  none
attr source  sentPacketToLowerLayer
vector 722  CAIN.ueD2DTx[16].nic.mac  receivedPacketFromLowerLayer:vector(packetBytes)  ETV
attr interpolationmode  none
attr source  receivedPacketFromLowerLayer
vector 2045  CAIN.ueD2DTx[23].tcp  tcpRcvQueueBytes  ETV
vector 2032  CAIN.ueD2DTx[23].tcp  "advertised window"  ETV
vector 2031  CAIN.ueD2DTx[23].tcp  "receive window"  ETV
vector 2034  CAIN.ueD2DTx[23].tcp  "sent ack"  ETV
vector 941  CAIN.ueD2DTx[23].nic.pdcpRrc  receivedPacketFromUpperLayer:vector(packetBytes)  ETV
attr interpolationmode  none
attr source  receivedPacketFromUpperLayer
vector 944  CAIN.ueD2DTx[23].nic.pdcpRrc  sentPacketToLowerLayer:vector(packetBytes)  ETV
attr interpolationmode  none
attr source  sentPacketToLowerLayer
vector 945  CAIN.ueD2DTx[23].nic.mac  receivedPacketFromUpperLayer:vector(packetBytes)  ETV
attr interpolationmode  none
attr source  receivedPacketFromUpperLayer
vector 947  CAIN.ueD2DTx[23].nic.mac  sentPacketToUpperLayer:vector(packetBytes)  ETV
attr interpolationmode  none
attr source  sentPacketToUpperLayer
vector 2069  CAIN.ueD2DTx[18].tcp  tcpRcvQueueBytes  ETV
vector 2056  CAIN.ueD2DTx[18].tcp  "advertised window"  ETV
vector 2055  CAIN.ueD2DTx[18].tcp  "receive window"  ETV
vector 2058  CAIN.ueD2DTx[18].tcp  "sent ack"  ETV
vector 781  CAIN.ueD2DTx[18].nic.pdcpRrc  receivedPacketFromUpperLayer:vector(packetBytes)  ETV
attr interpolationmode  none
attr source  receivedPacketFromUpperLayer
vector 784  CAIN.ueD2DTx[18].nic.pdcpRrc  sentPacketToLowerLayer:vector(packetBytes)  ETV
attr interpolationmode  none
attr source  sentPacketToLowerLayer
vector 785  CAIN.ueD2DTx[18].nic.mac  receivedPacketFromUpperLayer:vector(packetBytes)  ETV
attr interpolationmode  none
attr source  receivedPacketFromUpperLayer
vector 795  CAIN.ueD2DTx[18].nic.mac  CainHopMessageSent:vector  ETV
attr interpolationmode  none
attr title  "# of Sent CAIN hop message, vector"
vector 788  CAIN.ueD2DTx[18].nic.mac  sentPacketToLowerLayer:vector(packetBytes)  ETV
attr interpolationmode  none
attr source  sentPacketToLowerLayer
vector 634  CAIN.ueD2DTx[13].nic.mac  CainMessageSent:vector  ETV
attr interpolationmode  none
attr title  "# of Sent CAIN message, vector"
vector 562  CAIN.ueD2DTx[11].nic.mac  receivedPacketFromLowerLayer:vector(packetBytes)  ETV
attr interpolationmode  none
attr source  receivedPacketFromLowerLayer
vector 563  CAIN.ueD2DTx[11].nic.mac  sentPacketToUpperLayer:vector(packetBytes)  ETV
attr interpolationmode  none
attr source  sentPacketToUpperLayer
vector 434  CAIN.ueD2DTx[7].nic.mac  receivedPacketFromLowerLayer:vector(packetBytes)  ETV
attr interpolationmode  none
attr source  receivedPacketFromLowerLayer
vector 402  CAIN.ueD2DTx[6].nic.mac  receivedPacketFromLowerLayer:vector(packetBytes)  ETV
attr interpolationmode  none
attr source  receivedPacketFromLowerLayer
vector 435  CAIN.ueD2DTx[7].nic.mac  sentPacketToUpperLayer:vector(packetBytes)  ETV
attr interpolationmode  none
attr source  sentPacketToUpperLayer
vector 403  CAIN.ueD2DTx[6].nic.mac  sentPacketToUpperLayer:vector(packetBytes)  ETV
attr interpolationmode  none
attr source  sentPacketToUpperLayer
vector 666  CAIN.ueD2DTx[14].nic.mac  CainMessageSent:vector  ETV
attr interpolationmode  none
attr title  "# of Sent CAIN message, vector"
vector 274  CAIN.ueD2DTx[2].nic.mac  receivedPacketFromLowerLayer:vector(packetBytes)  ETV
attr interpolationmode  none
attr source  receivedPacketFromLowerLayer
vector 275  CAIN.ueD2DTx[2].nic.mac  sentPacketToUpperLayer:vector(packetBytes)  ETV
attr interpolationmode  none
attr source  sentPacketToUpperLayer
vector 530  CAIN.ueD2DTx[10].nic.mac  receivedPacketFromLowerLayer:vector(packetBytes)  ETV
attr interpolationmode  none
attr source  receivedPacketFromLowerLayer
vector 531  CAIN.ueD2DTx[10].nic.mac  sentPacketToUpperLayer:vector(packetBytes)  ETV
attr interpolationmode  none
attr source  sentPacketToUpperLayer
vector 210  CAIN.ueD2DTx[0].nic.mac  receivedPacketFromLowerLayer:vector(packetBytes)  ETV
attr interpolationmode  none
attr source  receivedPacketFromLowerLayer
vector 762  CAIN.ueD2DTx[17].nic.mac  CainMessageSent:vector  ETV
attr interpolationmode  none
attr title  "# of Sent CAIN message, vector"
vector 173  CAIN.eNodeB1.nic.phy  averageCqiUlvect:vector  ETV
attr source  averageCqiUlvect
attr title  "Average Cqi reported in UL, vector"
attr unit  cqi
vector 243  CAIN.ueD2DTx[1].nic.mac  sentPacketToUpperLayer:vector(packetBytes)  ETV
attr interpolationmode  none
attr source  sentPacketToUpperLayer
vector 378  CAIN.ueD2DTx[5].nic.mac  CainMessageSent:vector  ETV
attr interpolationmode  none
attr title  "# of Sent CAIN message, vector"
vector 922  CAIN.ueD2DTx[22].nic.mac  CainMessageSent:vector  ETV
attr interpolationmode  none
attr title  "# of Sent CAIN message, vector"
vector 218  CAIN.ueD2DTx[0].nic.mac  CainMessageSent:vector  ETV
attr interpolationmode  none
attr title  "# of Sent CAIN message, vector"
vector 475  CAIN.ueD2DTx[8].nic.mac  CainHopMessageSent:vector  ETV
attr interpolationmode  none
attr title  "# of Sent CAIN hop message, vector"
vector 723  CAIN.ueD2DTx[16].nic.mac  sentPacketToUpperLayer:vector(packetBytes)  ETV
attr interpolationmode  none
attr source  sentPacketToUpperLayer
vector 410  CAIN.ueD2DTx[6].nic.mac  CainMessageSent:vector  ETV
attr interpolationmode  none
attr title  "# of Sent CAIN message, vector"
vector 115  CAIN.eNodeB.nic.phy  averageCqiUlvect:vector  ETV
attr source  averageCqiUlvect
attr title  "Average Cqi reported in UL, vector"
attr unit  cqi
1268	57349 24 175 175 0.0000001228 0.0000001228 1 0 0 0 0
1379	57373 28 260 260 0.0000006304 0.0000006304 1 65535 65535 65535 4294836225
1380	57401 27 260 260 0.0000006304 0.0000006304 1 8940 8940 8940 79923600
1381	57428 29 260 260 0.0000006304 0.0000006304 1 0.3725 0.3725 0.3725 0.13875625
1377	57457 24 260 260 0.0000006304 0.0000006304 1 3 3 3 9
1384	57481 24 260 260 0.0000006304 0.0000006304 1 1 1 1 1
1396	57505 24 188 188 0.0000003096 0.0000003096 1 0 0 0 0
1352	57529 28 260 260 0.0000006304 0.0000006304 1 65535 65535 65535 4294836225
1353	57557 27 260 260 0.0000006304 0.0000006304 1 8940 8940 8940 79923600
1354	57584 29 260 260 0.0000006304 0.0000006304 1 0.3725 0.3725 0.3725 0.13875625
1350	57613 24 260 260 0.0000006304 0.0000006304 1 3 3 3 9
1357	57637 24 260 260 0.0000006304 0.0000006304 1 1 1 1 1
1369	57661 24 188 188 0.0000003096 0.0000003096 1 0 0 0 0
1070	57685 28 260 260 0.0000006304 0.0000006304 1 65535 65535 65535 4294836225
1071	57713 27 260 260 0.0000006304 0.0000006304 1 8940 8940 8940 79923600
1072	57740 29 260 260 0.0000006304 0.0000006304 1 0.3725 0.3725 0.3725 0.13875625
1068	57769 48 260 327 0.0000006304 0.0000008564 2 1 3 4 10
1069	57817 31 327 327 0.0000008564 0.0000008564 1 2.26e-07 2.26e-07 2.26e-07 5.1076e-14
1074	57848 3900 4541 18477 0.0570000972 0.2570025916 135 2000 2134 279045 576991035
1077	61748 46 232 246 0.000000552 0.000000596 2 1 2 3 5
1076	61794 46 232 246 0.000000552 0.000000596 2 1 2 3 5
1078	61840 48 327 333 0.0000008564 0.0000009004 2 1 2 3 5
1087	61888 13 156 156 0 0 1 0 0 0 0
1046	61901 89 4541 31718 0.0570000972 0.4570025916 3 65533 65535 196603 12884246539
1050	61990 3575 4541 31718 0.0570000972 0.4570025916 138 0 240 272 58392
1055	65565 77 4541 31718 0.0570000972 0.4570025916 3 0 0 0 0
1056	65642 77 4541 31718 0.0570000972 0.4570025916 3 0 0 0 0
1057	65719 77 4541 31718 0.0570000972 0.4570025916 3 0 0 0 0
1058	65796 77 4541 31718 0.0570000972 0.4570025916 3 0 0 0 0
1059	65873 77 4541 31718 0.0570000972 0.4570025916 3 0 0 0 0
1060	65950 77 4541 31718 0.0570000972 0.4570025916 3 0 0 0 0
1061	66027 77 4541 31718 0.0570000972 0.4570025916 3 0 0 0 0
1062	66104 80 4541 31718 0.0570000972 0.4570025916 3 16 16 48 768
1064	66184 28 188 188 0.0000003096 0.0000003096 1 65535 65535 65535 4294836225
1066	66212 4694 4544 18598 0.0570000972 0.2570025916 135 9.72e-08 2.0012e-06 0.000244514 4.818896792e-10
1067	70906 13 156 156 0 0 1 0 0 0 0
1298	70919 27 203 203 0.000000458 0.000000458 1 65535 65535 65535 4294836225
1299	70946 26 203 203 0.000000458 0.000000458 1 8940 8940 8940 79923600
1300	70972 28 203 203 0.000000458 0.000000458 1 0.3725 0.3725 0.3725 0.13875625
1296	71000 23 203 203 0.000000458 0.000000458 1 3 3 3 9
1303	71023 23 203 203 0.000000458 0.000000458 1 1 1 1 1
1311	71046 76 750 28557 0.0070001912 0.4070026856 3 0 0 0 0
1312	71122 76 750 28557 0.0070001912 0.4070026856 3 0 0 0 0
1313	71198 76 750 28557 0.0070001912 0.4070026856 3 0 0 0 0
1315	71274 24 175 175 0.0000001228 0.0000001228 1 0 0 0 0
1271	71298 27 203 203 0.000000458 0.000000458 1 65535 65535 65535 4294836225
1272	71325 26 203 203 0.000000458 0.000000458 1 8940 8940 8940 79923600
1273	71351 28 203 203 0.000000458 0.000000458 1 0.3725 0.3725 0.3725 0.13875625
1269	71379 23 203 203 0.000000458 0.000000458 1 3 3 3 9
1276	71402 23 203 203 0.000000458 0.000000458 1 1 1 1 1
1284	71425 76 750 28557 0.0070001912 0.4070026856 3 0 0 0 0
1285	71501 76 750 28557 0.0070001912 0.4070026856 3 0 0 0 0
1286	71577 76 750 28557 0.0070001912 0.4070026856 3 0 0 0 0
1288	71653 24 175 175 0.0000001228 0.0000001228 1 0 0 0 0
1325	71677 57 203 79054 0.000000458 1.2070005904 2 65535 65535 131070 8589672450
1326	71734 55 203 79054 0.000000458 1.2070005904 2 8940 8940 17880 159847200
1327	71789 58 203 79054 0.000000458 1.2070005904 2 0.3725 23.84 24.2125 568.48435625
1323	71847 123 203 28557 0.000000458 0.4070026856 5 1 3 7 13
1324	71970 138 280 28557 0.0000006744 0.4070026856 4 1.912e-07 0.2000020952 0.400002902 0.080000997764633
1328	72108 3878 688 14745 0.007 0.2070005904 135 2000 2134 279045 576991035
1332	75986 48 298 312 0.0000007624 0.0000008064 2 1 2 3 5
1331	76034 48 298 312 0.0000007624 0.0000008064 2 1 2 3 5
1333	76082 48 280 290 0.0000006744 0.0000007184 2 1 2 3 5
1334	76130 7372 688 28557 0.007 0.4070026856 270 0 240 29194 4615500
1335	83502 7372 688 28557 0.007 0.4070026856 270 0 240 29194 4615500
1338	90874 76 750 28557 0.0070001912 0.4070026856 3 0 0 0 0
1339	90950 76 750 28557 0.0070001912 0.4070026856 3 0 0 0 0
1340	91026 76 750 28557 0.0070001912 0.4070026856 3 0 0 0 0
1341	91102 76 750 28557 0.0070001912 0.4070026856 3 0 0 0 0
1342	91178 24 175 175 0.0000001228 0.0000001228 1 0 0 0 0
1345	91202 85 750 28557 0.0070001912 0.4070026856 3 2000 2134 6148 12610152
1347	91287 76 750 28557 0.0070001912 0.4070026856 3 0 0 0 0
1348	91363 76 750 28557 0.0070001912 0.4070026856 3 0 0 0 0
1464	91439 76 750 28557 0.0070001912 0.4070026856 3 0 0 0 0
1465	91515 6159 688 14745 0.007 0.2070005904 270 0 120 14597 1153875
1008	97674 7372 688 28557 0.007 0.4070026856 270 0 240 29194 4615500
1007	105046 7372 688 28557 0.007 0.4070026856 270 0 240 29194 4615500
1009	112418 76 750 28557 0.0070001912 0.4070026856 3 0 0 0 0
1010	112494 76 750 28557 0.0070001912 0.4070026856 3 0 0 0 0
1019	112570 88 750 28557 0.0070001912 0.4070026856 3 65533 65535 196603 12884246539
1020	112658 116 175 28557 0.0000001228 0.4070026856 4 65533 65535 262138 17179082764
1023	112774 13 148 148 0 0 1 0 0 0 0
1165	112787 24 174 174 0.0000001228 0.0000001228 1 0 0 0 0
1433	112811 28 261 261 0.0000006304 0.0000006304 1 65535 65535 65535 4294836225
1434	112839 27 261 261 0.0000006304 0.0000006304 1 8940 8940 8940 79923600
1435	112866 29 261 261 0.0000006304 0.0000006304 1 0.3725 0.3725 0.3725 0.13875625
1431	112895 24 261 261 0.0000006304 0.0000006304 1 3 3 3 9
1438	112919 24 261 261 0.0000006304 0.0000006304 1 1 1 1 1
1450	112943 24 189 189 0.0000003096 0.0000003096 1 0 0 0 0
1406	112967 28 261 261 0.0000006304 0.0000006304 1 65535 65535 65535 4294836225
1407	112995 27 261 261 0.0000006304 0.0000006304 1 8940 8940 8940 79923600
1408	113022 29 261 261 0.0000006304 0.0000006304 1 0.3725 0.3725 0.3725 0.13875625
1404	113051 24 261 261 0.0000006304 0.0000006304 1 3 3 3 9
1411	113075 24 261 261 0.0000006304 0.0000006304 1 1 1 1 1
1423	113099 24 189 189 0.0000003096 0.0000003096 1 0 0 0 0
1119	113123 28 261 261 0.0000006304 0.0000006304 1 65535 65535 65535 4294836225
1120	113151 27 261 261 0.0000006304 0.0000006304 1 8940 8940 8940 79923600
1121	113178 29 261 261 0.0000006304 0.0000006304 1 0.3725 0.3725 0.3725 0.13875625
1117	113207 48 261 326 0.0000006304 0.0000008564 2 1 3 4 10
1118	113255 31 326 326 0.0000008564 0.0000008564 1 2.26e-07 2.26e-07 2.26e-07 5.1076e-14
1123	113286 3885 738 14752 0.0070000972 0.2070025916 135 2000 2134 279045 576991035
1126	117171 46 233 247 0.000000552 0.000000596 2 1 2 3 5
1125	117217 46 233 247 0.000000552 0.000000596 2 1 2 3 5
1127	117263 48 326 332 0.0000008564 0.0000009004 2 1 2 3 5
1136	117311 13 157 157 0 0 1 0 0 0 0
1095	117324 88 738 28550 0.0070000972 0.4070025916 3 65533 65535 196603 12884246539
1099	117412 3559 738 28550 0.0070000972 0.4070025916 138 0 240 272 58392
1104	120971 76 738 28550 0.0070000972 0.4070025916 3 0 0 0 0
1105	121047 76 738 28550 0.0070000972 0.4070025916 3 0 0 0 0
1106	121123 76 738 28550 0.0070000972 0.4070025916 3 0 0 0 0
1107	121199 76 738 28550 0.0070000972 0.4070025916 3 0 0 0 0
1108	121275 76 738 28550 0.0070000972 0.4070025916 3 0 0 0 0
1109	121351 76 738 28550 0.0070000972 0.4070025916 3 0 0 0 0
1110	121427 76 738 28550 0.0070000972 0.4070025916 3 0 0 0 0
1111	121503 79 738 28550 0.0070000972 0.4070025916 3 16 16 48 768
1113	121582 28 189 189 0.0000003096 0.0000003096 1 65535 65535 65535 4294836225
1115	121610 4679 741 14873 0.0070000972 0.2070025916 135 9.72e-08 2.0012e-06 0.000244514 4.818896792e-10
1116	126289 13 157 157 0 0 1 0 0 0 0
1195	126302 27 202 202 0.000000458 0.000000458 1 65535 65535 65535 4294836225
1196	126329 26 202 202 0.000000458 0.000000458 1 8940 8940 8940 79923600
1197	126355 28 202 202 0.000000458 0.000000458 1 0.3725 0.3725 0.3725 0.13875625
1193	126383 23 202 202 0.000000458 0.000000458 1 3 3 3 9
1200	126406 23 202 202 0.000000458 0.000000458 1 1 1 1 1
1208	126429 77 4553 31725 0.0570001912 0.4570026856 3 0 0 0 0
1209	126506 77 4553 31725 0.0570001912 0.4570026856 3 0 0 0 0
1210	126583 77 4553 31725 0.0570001912 0.4570026856 3 0 0 0 0
1212	126660 24 174 174 0.0000001228 0.0000001228 1 0 0 0 0
1168	126684 27 202 202 0.000000458 0.000000458 1 65535 65535 65535 4294836225
1169	126711 26 202 202 0.000000458 0.000000458 1 8940 8940 8940 79923600
1170	126737 28 202 202 0.000000458 0.000000458 1 0.3725 0.3725 0.3725 0.13875625
1166	126765 23 202 202 0.000000458 0.000000458 1 3 3 3 9
1173	126788 23 202 202 0.000000458 0.000000458 1 1 1 1 1
1181	126811 77 4553 31725 0.0570001912 0.4570026856 3 0 0 0 0
1182	126888 77 4553 31725 0.0570001912 0.4570026856 3 0 0 0 0
1183	126965 77 4553 31725 0.0570001912 0.4570026856 3 0 0 0 0
1185	127042 24 174 174 0.0000001228 0.0000001228 1 0 0 0 0
1222	127066 57 202 82225 0.000000458 1.2570005904 2 65535 65535 131070 8589672450
1223	127123 55 202 82225 0.000000458 1.2570005904 2 8940 8940 17880 159847200
1224	127178 58 202 82225 0.000000458 1.2570005904 2 0.3725 23.84 24.2125 568.48435625
1220	127236 124 202 31725 0.000000458 0.4570026856 5 1 3 7 13
1221	127360 139 281 31725 0.0000006744 0.4570026856 4 1.912e-07 0.2000020952 0.400002902 0.080000997764633
1225	127499 3893 4451 18470 0.057 0.2570005904 135 2000 2134 279045 576991035
1229	131392 48 299 313 0.0000007624 0.0000008064 2 1 2 3 5
1228	131440 48 299 313 0.0000007624 0.0000008064 2 1 2 3 5
1230	131488 48 281 291 0.0000006744 0.0000007184 2 1 2 3 5
1231	131536 7388 4451 31725 0.057 0.4570026856 270 0 240 29194 4615500
1232	138924 7388 4451 31725 0.057 0.4570026856 270 0 240 29194 4615500
1235	146312 77 4553 31725 0.0570001912 0.4570026856 3 0 0 0 0
1236	146389 77 4553 31725 0.0570001912 0.4570026856 3 0 0 0 0
1237	146466 77 4553 31725 0.0570001912 0.4570026856 3 0 0 0 0
1238	146543 77 4553 31725 0.0570001912 0.4570026856 3 0 0 0 0
1239	146620 24 174 174 0.0000001228 0.0000001228 1 0 0 0 0
1242	146644 86 4553 31725 0.0570001912 0.4570026856 3 2000 2134 6148 12610152
1244	146730 77 4553 31725 0.0570001912 0.4570026856 3 0 0 0 0
1245	146807 77 4553 31725 0.0570001912 0.4570026856 3 0 0 0 0
1460	146884 77 4553 31725 0.0570001912 0.4570026856 3 0 0 0 0
1461	146961 6189 4451 18470 0.057 0.2570005904 270 0 120 14597 1153875
1030	153150 7388 4451 31725 0.057 0.4570026856 270 0 240 29194 4615500
1029	160538 7388 4451 31725 0.057 0.4570026856 270 0 240 29194 4615500
1031	167926 77 4553 31725 0.0570001912 0.4570026856 3 0 0 0 0
1032	168003 77 4553 31725 0.0570001912 0.4570026856 3 0 0 0 0
1041	168080 89 4553 31725 0.0570001912 0.4570026856 3 65533 65535 196603 12884246539
1042	168169 117 174 31725 0.0000001228 0.4570026856 4 65533 65535 262138 17179082764
1045	168286 13 153 153 0 0 1 0 0 0 0
8	168299 8 0 0 0 0 1 0 0 0 0
9	168307 8 0 0 0 0 1 0 0 0 0
24	168315 9 0 0 0 0 1 0 0 0 0
25	168324 9 0 0 0 0 1 0 0 0 0
35	168333 9 0 0 0 0 1 0 0 0 0
36	168342 9 0 0 0 0 1 0 0 0 0
56	168351 9 0 0 0 0 1 0 0 0 0
57	168360 9 0 0 0 0 1 0 0 0 0
67	168369 9 0 0 0 0 1 0 0 0 0
68	168378 9 0 0 0 0 1 0 0 0 0
78	168387 9 0 0 0 0 1 0 0 0 0
79	168396 9 0 0 0 0 1 0 0 0 0
96	168405 709809 418 774915 0.002 10 40190 0 0 0 0
98	878214 233690 1246 774915 0.015 10 13290 0 0 0 0
100	1111904 41343 2925 774904 0.04 10 1995 1 1995 1991010 2648706970
101	1153247 181791 1290 774915 0.016 10 8477 1 8477 35934003 203087006955
106	1335038 432520 1290 774915 0.016 10 20914 397 669 13734812 9086169652
108	1767558 37741 3092 774638 0.042 9.997 1993 1 10 14507 121627
109	1805299 167652 1393 774853 0.018 9.999 8449 3 18 151751 2728375
111	1972951 518126 1246 774915 0.015 10 23316 1 23316 271829586 4225409694646
112	2491077 482600 1246 774915 0.015 10 23316 104 630 9030469 3875906549
113	2973677 435968 1246 774915 0.015 10 23316 0 0 0 0
115	3409645 3780 690247 774628 9.057 9.997 189 13 13 2457 31941
120	3413425 10 0 0 0 0 1 0 0 0 0
121	3413435 10 0 0 0 0 1 0 0 0 0
128	3413445 421 164 31720 0 0.4570025916 18 36 2432 3724 6088720
130	3413866 438 164 31720 0 0.4570025916 18 0 8.8e-08 3.088e-07 1.946112e-14
131	3414304 280 0 283 0 0.0000007124 13 0 2 10 14
132	3414584 828 0 31722 0 0.4570026356 37 0 1 18 18
133	3415412 423 166 31721 0 0.4570025916 18 43 2439 3850 6141738
134	3415835 442 171 28555 0.0000001228 0.4070026856 18 43 2439 3850 6141738
137	3416277 423 166 31721 0 0.4570025916 18 36 2432 3724 6088720
138	3416700 442 171 28555 0.0000001228 0.4070026856 18 36 2432 3724 6088720
141	3417142 3360 4546 18837 0.0570000972 0.2570025916 135 2 2 270 540
154	3420502 586688 4958 774819 0.062 9.999 31375 0 0 0 0
156	4007190 228694 6141 774856 0.077 10 12105 0 0 0 0
169	4235884 121981 6141 774819 0.077 9.999 5595 1 5595 15654810 58397659570
170	4357865 117493 6141 774819 0.077 9.999 5595 153 674 2625896 1411776614
171	4475358 106303 6141 774819 0.077 9.999 5595 0 0 0 0
173	4581661 17575 196463 774765 3.058 9.998 925 2 6 3630 14420
178	4599236 10 0 0 0 0 1 0 0 0 0
179	4599246 10 0 0 0 0 1 0 0 0 0
186	4599256 422 165 28552 0 0.4070025916 18 36 2432 3724 6088720
188	4599678 439 165 28552 0 0.4070025916 18 0 8.8e-08 3.088e-07 1.946112e-14
189	4600117 280 0 282 0 0.0000007124 13 0 2 10 14
190	4600397 830 0 28554 0 0.4070026356 37 0 1 18 18
191	4601227 424 167 28553 0 0.4070025916 18 43 2439 3850 6141738
192	4601651 441 170 31723 0.0000001228 0.4570026856 18 43 2439 3850 6141738
195	4602092 424 167 28553 0 0.4070025916 18 36 2432 3724 6088720
196	4602516 441 170 31723 0.0000001228 0.4570026856 18 36 2432 3724 6088720
199	4602957 3345 743 15112 0.0070000972 0.2070025916 135 2 2 270 540
205	4606302 85 3982 689786 0.052847558425 9.052847558425 3 44 44 132 5808
208	4606387 85 3982 689786 0.052847558425 9.052847558425 3 45 45 135 6075
209	4606472 85 3985 689789 0.052847558425 9.052847558425 3 45 45 135 6075
210	4606557 78674 195685 774825 3.049 9.999 4168 0 0 0 0
212	4685231 70431 3988 774825 0.053 9.999 3707 0 0 0 0
218	4755662 9594 197267 774646 3.068 9.998 462 1 462 106953 32977175
219	4765256 17 3988 3988 0.053 0.053 1 1 1 1 1
231	4765273 163 0 8200 0 0.105 10 1 2 19 37
237	4765436 85 4635 690265 0.057084039294 9.057084039294 3 44 44 132 5808
240	4765521 85 4635 690265 0.057084039294 9.057084039294 3 45 45 135 6075
241	4765606 26457 4638 774580 0.057084039294 9.997 1391 0 45 135 6075
242	4792063 78355 5313 774902 0.066 10 4165 0 0 0 0
243	4870418 26372 196742 774576 3.062 9.997 1388 0 0 0 0
244	4896790 52778 4642 774648 0.058 9.998 2778 0 0 0 0
251	4949568 17 4642 4642 0.058 0.058 1 1 1 1 1
263	4949585 163 0 8201 0 0.105 10 1 2 19 37
269	4949748 85 2366 687989 0.032546852513 9.032546852513 3 44 44 132 5808
272	4949833 85 2366 687989 0.032546852513 9.032546852513 3 45 45 135 6075
273	4949918 243 2369 689716 0.032546852513 9.052 11 8 45 241 7553
274	4950161 300 194571 689670 3.035 9.051 16 0 0 0 0
275	4950461 152 194698 689712 3.037 9.052 8 0 0 0 0
276	4950613 237 2374 689328 0.033 9.048 13 0 0 0 0
283	4950850 85 2374 3991 0.033 0.053 5 1 5 15 55
295	4950935 163 0 8202 0 0.105 10 1 2 19 37
301	4951098 85 5201 690913 0.064453871725 9.064453871725 3 44 44 132 5808
304	4951183 85 5201 690913 0.064453871725 9.064453871725 3 45 45 135 6075
305	4951268 85 5204 690916 0.064453871725 9.064453871725 3 45 45 135 6075
308	4951353 25612 5210 774861 0.065 10 1389 0 0 0 0
314	4976965 28672 5210 774861 0.065 10 1389 1 1389 965355 894240515
327	5005637 163 0 8203 0 0.105 10 1 2 19 37
333	5005800 85 2740 688402 0.037261432968 9.037261432968 3 44 44 132 5808
336	5005885 85 2740 688402 0.037261432968 9.037261432968 3 45 45 135 6075
337	5005970 85 2743 688405 0.037261432968 9.037261432968 3 45 45 135 6075
338	5006055 149784 1214 774898 0.014 10 8014 0 0 0 0
340	5155839 187331 1214 774898 0.014 10 10007 0 0 0 0
346	5343170 42419 2751 774652 0.038 9.998 1993 1 1993 1987021 2640750909
359	5385589 10 0 0 0 0 1 1 1 1 1
365	5385599 85 4912 690615 0.061955560849 9.061955560849 3 44 44 132 5808
368	5385684 85 4912 690615 0.061955560849 9.061955560849 3 45 45 135 6075
369	5385769 85 4915 690618 0.061955560849 9.061955560849 3 45 45 135 6075
372	5385854 26389 4931 774584 0.062 9.997 1389 0 0 0 0
378	5412243 29429 196750 774584 3.062 9.997 1388 1 1388 963966 892311194
379	5441672 17 4931 4931 0.062 0.062 1 1 1 1 1
391	5441689 163 0 8204 0 0.105 10 1 2 19 37
397	5441852 85 1879 687345 0.025271030879 9.025271030879 3 44 44 132 5808
400	5441937 85 1879 687345 0.025271030879 9.025271030879 3 45 45 135 6075
401	5442022 1156 1882 687348 0.025271030879 9.025271030879 61 0 45 188 7154
402	5443178 2204 194071 218916 3.028 3.314 116 0 0 0 0
403	5445382 1070 194170 218964 3.03 3.315 58 0 0 0 0
404	5446452 4926 1891 774487 0.026 9.996 260 0 0 0 0
410	5451378 3987 687358 774487 9.026 9.996 195 1 195 19110 2490670
411	5455365 119 1891 4308 0.026 0.056 7 1 7 28 140
423	5455484 163 0 8205 0 0.105 10 1 2 19 37
429	5455647 85 1762 687250 0.024352218178 9.024352218178 3 44 44 132 5808
432	5455732 85 1762 687250 0.024352218178 9.024352218178 3 45 45 135 6075
433	5455817 125 1765 687629 0.024352218178 9.029 5 45 47 229 10493
434	5455942 3781 194014 774620 3.027 9.997 199 0 0 0 0
435	5459723 38 194088 687625 3.029 9.029 2 0 0 0 0
436	5459761 3859 1845 774620 0.025 9.997 204 0 0 0 0
443	5463620 116 1845 4237 0.025 0.055 7 1 7 28 140
455	5463736 163 0 8206 0 0.105 10 1 2 19 37
461	5463899 85 3505 689292 0.047532676856 9.047532676856 3 44 44 132 5808
464	5463984 85 3505 689292 0.047532676856 9.047532676856 3 45 45 135 6075
465	5464069 85 3508 689295 0.047532676856 9.047532676856 3 45 45 135 6075
466	5464154 51 4116 5134 0.054 0.063 3 0 0 0 0
468	5464205 26514 3546 774657 0.048 9.998 1396 0 0 0 0
474	5490719 19439 3546 774250 0.048 9.993 931 1 931 433846 269418366
475	5510158 9594 197278 774657 3.068 9.998 462 1 462 106953 32977175
487	5519752 163 0 8207 0 0.105 10 1 2 19 37
493	5519915 85 3600 689392 0.048413756283 9.048413756283 3 44 44 132 5808
496	5520000 85 3600 689392 0.048413756283 9.048413756283 3 45 45 135 6075
497	5520085 580 3603 693551 0.048413756283 9.093 30 7 45 324 7398
498	5520665 990 3875 693504 0.051 9.092 54 0 0 0 0
499	5521655 495 4001 693547 0.053 9.093 27 0 0 0 0
500	5522150 495 3685 693134 0.049 9.089 27 0 0 0 0
519	5522645 10 0 0 0 0 1 1 1 1 1
525	5522655 85 2471 688133 0.034129833705 9.034129833705 3 44 44 132 5808
528	5522740 85 2471 688133 0.034129833705 9.034129833705 3 45 45 135 6075
529	5522825 8219 2474 774794 0.034129833705 9.999 431 0 45 192 6708
530	5531044 16264 194739 774740 3.037 9.998 856 0 0 0 0
531	5547308 8132 194885 774790 3.039 9.999 428 0 0 0 0
532	5555440 7995 2496 774869 0.035 10 434 0 0 0 0
539	5563435 83 2496 4241 0.035 0.055 5 1 5 15 55
551	5563518 163 0 8208 0 0.105 10 1 2 19 37
557	5563681 85 1610 687020 0.021843716542 9.021843716542 3 44 44 132 5808
560	5563766 85 1610 687020 0.021843716542 9.021843716542 3 45 45 135 6075
561	5563851 26590 1613 774497 0.021843716542 9.996 1398 0 45 135 6075
562	5590441 158078 193119 774896 3.014 10 8361 0 0 0 0
563	5748519 26505 193867 774493 3.026 9.996 1395 0 0 0 0
564	5775024 132454 1627 774831 0.022 9.999 6972 0 0 0 0
571	5907478 119 1627 3919 0.022 0.052 7 1 7 28 140
583	5907597 163 0 8209 0 0.105 10 1 2 19 37
589	5907760 85 1148 686317 0.013528948517 9.013528948517 3 44 44 132 5808
592	5907845 85 1148 686317 0.013528948517 9.013528948517 3 45 45 135 6075
593	5907930 201 1151 687108 0.013528948517 9.023 9 23 45 282 9690
594	5908131 375064 1252 774918 0.015 10 19971 0 0 0 0
595	6283195 110 1368 687104 0.018 9.023 6 0 0 0 0
596	6283305 374954 1166 774918 0.014 10 19965 0 0 0 0
615	6658259 10 0 0 0 0 1 1 1 1 1
621	6658269 85 1032 686214 0.012270864309 9.012270864309 3 44 44 132 5808
624	6658354 85 1032 686214 0.012270864309 9.012270864309 3 45 45 135 6075
625	6658439 85 1035 686217 0.012270864309 9.012270864309 3 45 45 135 6075
628	6658524 26715 1121 774663 0.013 9.998 1407 0 0 0 0
634	6685239 29649 192980 774663 3.013 9.998 1398 1 1398 977901 911729699
635	6714888 153 1121 4009 0.013 0.053 9 1 9 45 285
647	6715041 163 0 8210 0 0.105 10 1 2 19 37
653	6715204 85 2479 688140 0.034439526021 9.034439526021 3 44 44 132 5808
656	6715289 85 2479 688140 0.034439526021 9.034439526021 3 45 45 135 6075
657	6715374 85 2482 688143 0.034439526021 9.034439526021 3 45 45 135 6075
660	6715459 25789 2501 774874 0.035 10 1399 0 0 0 0
666	6741248 28781 194550 774874 3.035 10 1394 1 1394 972315 903928845
667	6770029 83 2501 4246 0.035 0.055 5 1 5 15 55
679	6770112 163 0 8211 0 0.105 10 1 2 19 37
685	6770275 85 3902 689699 0.051566809383 9.051566809383 3 44 44 132 5808
688	6770360 85 3902 689699 0.051566809383 9.051566809383 3 45 45 135 6075
689	6770445 123 3905 689702 0.051566809383 9.051566809383 5 45 47 229 10493
690	6770568 28204 3712 774907 0.049 10 1505 0 0 0 0
691	6798772 36 4318 196242 0.056 3.056 2 0 0 0 0
692	6798808 24666 3712 774907 0.049 10 1313 0 0 0 0
696	6823474 17 3886 3886 0.051 0.051 1 1 1 1 1
711	6823491 10 0 0 0 0 1 1 1 1 1
717	6823501 85 6058 691941 0.075361895796 9.075361895796 3 44 44 132 5808
720	6823586 85 6058 691941 0.075361895796 9.075361895796 3 45 45 135 6075
721	6823671 25531 6061 774881 0.075361895796 10 1383 0 45 142 6124
722	6849202 87702 6220 774816 0.078 9.999 4616 0 0 0 0
723	6936904 25446 198361 774877 3.08 10 1380 0 0 0 0
724	6962350 61482 6081 774816 0.076 9.999 3236 0 0 0 0
743	7023832 163 0 8212 0 0.105 10 1 2 19 37
749	7023995 82 3974 689779 0.05273845314 9.05273845314 3 44 44 132 5808
752	7024077 82 3974 689779 0.05273845314 9.05273845314 3 45 45 135 6075
753	7024159 82 3977 689782 0.05273845314 9.05273845314 3 45 45 135 6075
756	7024241 26427 4014 774668 0.053 9.998 1391 0 0 0 0
762	7050668 29473 195996 774668 3.053 9.998 1390 1 1390 966745 896172615
763	7080141 17 4014 4014 0.053 0.053 1 1 1 1 1
775	7080158 163 0 8213 0 0.105 10 1 2 19 37
781	7080321 85 7194 693394 0.091364573385 9.091364573385 3 44 44 132 5808
784	7080406 85 7194 693394 0.091364573385 9.091364573385 3 45 45 135 6075
785	7080491 85 7197 693397 0.091364573385 9.091364573385 3 45 45 135 6075
788	7080576 37359 7218 774600 0.092 9.997 1982 0 0 0 0
795	7117935 42198 7218 774600 0.092 9.997 1982 1 1982 1965153 2597277215
807	7160133 10 0 0 0 0 1 1 1 1 1
813	7160143 85 1140 686310 0.013169782835 9.013169782835 3 44 44 132 5808
816	7160228 85 1140 686310 0.013169782835 9.013169782835 3 45 45 135 6075
817	7160313 85 1143 686313 0.013169782835 9.013169782835 3 45 45 135 6075
820	7160398 37632 1174 774803 0.014 9.999 1998 0 0 0 0
827	7198030 42519 1174 774803 0.014 9.999 1998 1 1998 1997001 2660670999
839	7240549 10 0 0 0 0 1 1 1 1 1
845	7240559 85 1959 687477 0.026259455872 9.026259455872 3 44 44 132 5808
848	7240644 85 1959 687477 0.026259455872 9.026259455872 3 45 45 135 6075
849	7240729 85 1962 687480 0.026259455872 9.026259455872 3 45 45 135 6075
852	7240814 37580 1986 774603 0.027 9.997 1995 0 0 0 0
859	7278394 42458 1986 774603 0.027 9.997 1995 1 1995 1991010 2648706970
871	7320852 10 0 0 0 0 1 1 1 1 1
877	7320862 85 2944 688679 0.040466304503 9.040466304503 3 44 44 132 5808
880	7320947 85 2944 688679 0.040466304503 9.040466304503 3 45 45 135 6075
881	7321032 85 2947 688682 0.040466304503 9.040466304503 3 45 45 135 6075
884	7321117 37529 2972 774508 0.041 9.996 1992 0 0 0 0
891	7358646 42398 2972 774508 0.041 9.996 1992 1 1992 1985028 2636778860
903	7401044 10 0 0 0 0 1 1 1 1 1
909	7401054 85 4920 690622 0.061974657003 9.061974657003 3 44 44 132 5808
912	7401139 85 4920 690622 0.061974657003 9.061974657003 3 45 45 135 6075
913	7401224 85 4923 690625 0.061974657003 9.061974657003 3 45 45 135 6075
916	7401309 26389 4950 774606 0.062 9.997 1389 0 0 0 0
922	7427698 29429 196771 774606 3.062 9.997 1388 1 1388 963966 892311194
923	7457127 17 4950 4950 0.062 0.062 1 1 1 1 1
935	7457144 163 0 8214 0 0.105 10 1 2 19 37
941	7457307 85 6840 692966 0.086746254247 9.086746254247 3 44 44 132 5808
944	7457392 85 6840 692966 0.086746254247 9.086746254247 3 45 45 135 6075
945	7457477 123 6843 692969 0.086746254247 9.086746254247 5 45 47 229 10493
946	7457600 4391 1998 774846 0.027 9.999 237 0 0 0 0
947	7461991 36 7168 199388 0.091 3.091 2 0 0 0 0
948	7462027 3936 1998 774608 0.027 9.997 210 0 0 0 0
953	7465963 437 2098 4830 0.029 0.06 25 1 25 325 5525
967	7466400 10 0 0 0 0 1 1 1 1 1
973	7466410 85 3010 688754 0.041518176082 9.041518176082 3 44 44 132 5808
976	7466495 85 3010 688754 0.041518176082 9.041518176082 3 45 45 135 6075
977	7466580 85 3013 688757 0.041518176082 9.041518176082 3 45 45 135 6075
978	7466665 37531 3307 774848 0.044 9.999 1992 0 0 0 0
980	7504196 37529 3067 774610 0.042 9.997 1992 0 0 0 0
999	7541725 10 0 0 0 0 1 1 1 1 1
1479	7541735 94 1029 686211 0.012270864309 9.012270864309 3 7504 7504 22512 168930048
1480	7541829 94 1029 686211 0.012270864309 9.012270864309 3 7504 7504 22512 168930048
1482	7541923 85 1029 686211 0.012270864309 9.012270864309 3 0 0 0 0
1493	7542008 85 1029 686211 0.012270864309 9.012270864309 3 0 0 0 0
1503	7542093 94 1137 686307 0.013169782835 9.013169782835 3 7504 7504 22512 168930048
1504	7542187 94 1137 686307 0.013169782835 9.013169782835 3 7504 7504 22512 168930048
1506	7542281 85 1137 686307 0.013169782835 9.013169782835 3 0 0 0 0
1517	7542366 85 1137 686307 0.013169782835 9.013169782835 3 0 0 0 0
1527	7542451 94 1145 686314 0.013528948517 9.013528948517 3 7504 7504 22512 168930048
1528	7542545 94 1145 686314 0.013528948517 9.013528948517 3 7504 7504 22512 168930048
1530	7542639 85 1145 686314 0.013528948517 9.013528948517 3 0 0 0 0
1541	7542724 85 1145 686314 0.013528948517 9.013528948517 3 0 0 0 0
1551	7542809 94 1607 687017 0.021843716542 9.021843716542 3 7504 7504 22512 168930048
1552	7542903 94 1607 687017 0.021843716542 9.021843716542 3 7504 7504 22512 168930048
1554	7542997 85 1607 687017 0.021843716542 9.021843716542 3 0 0 0 0
1565	7543082 85 1607 687017 0.021843716542 9.021843716542 3 0 0 0 0
1575	7543167 94 1759 687247 0.024352218178 9.024352218178 3 7504 7504 22512 168930048
1576	7543261 94 1759 687247 0.024352218178 9.024352218178 3 7504 7504 22512 168930048
1578	7543355 85 1759 687247 0.024352218178 9.024352218178 3 0 0 0 0
1589	7543440 85 1759 687247 0.024352218178 9.024352218178 3 0 0 0 0
1599	7543525 94 1876 687342 0.025271030879 9.025271030879 3 7504 7504 22512 168930048
1600	7543619 94 1876 687342 0.025271030879 9.025271030879 3 7504 7504 22512 168930048
1602	7543713 85 1876 687342 0.025271030879 9.025271030879 3 0 0 0 0
1613	7543798 85 1876 687342 0.025271030879 9.025271030879 3 0 0 0 0
1623	7543883 94 1956 687474 0.026259455872 9.026259455872 3 7504 7504 22512 168930048
1624	7543977 94 1956 687474 0.026259455872 9.026259455872 3 7504 7504 22512 168930048
1626	7544071 85 1956 687474 0.026259455872 9.026259455872 3 0 0 0 0
1637	7544156 85 1956 687474 0.026259455872 9.026259455872 3 0 0 0 0
1647	7544241 94 2363 687986 0.032546852513 9.032546852513 3 7504 7504 22512 168930048
1648	7544335 94 2363 687986 0.032546852513 9.032546852513 3 7504 7504 22512 168930048
1650	7544429 85 2363 687986 0.032546852513 9.032546852513 3 0 0 0 0
1661	7544514 85 2363 687986 0.032546852513 9.032546852513 3 0 0 0 0
1671	7544599 94 2468 688130 0.034129833705 9.034129833705 3 7504 7504 22512 168930048
1672	7544693 94 2468 688130 0.034129833705 9.034129833705 3 7504 7504 22512 168930048
1674	7544787 85 2468 688130 0.034129833705 9.034129833705 3 0 0 0 0
1685	7544872 85 2468 688130 0.034129833705 9.034129833705 3 0 0 0 0
1695	7544957 94 2476 688137 0.034439526021 9.034439526021 3 7504 7504 22512 168930048
1696	7545051 94 2476 688137 0.034439526021 9.034439526021 3 7504 7504 22512 168930048
1698	7545145 85 2476 688137 0.034439526021 9.034439526021 3 0 0 0 0
1709	7545230 85 2476 688137 0.034439526021 9.034439526021 3 0 0 0 0
1719	7545315 94 2737 688399 0.037261432968 9.037261432968 3 7504 7504 22512 168930048
1720	7545409 94 2737 688399 0.037261432968 9.037261432968 3 7504 7504 22512 168930048
1722	7545503 85 2737 688399 0.037261432968 9.037261432968 3 0 0 0 0
1733	7545588 85 2737 688399 0.037261432968 9.037261432968 3 0 0 0 0
1743	7545673 94 2941 688676 0.040466304503 9.040466304503 3 7504 7504 22512 168930048
1744	7545767 94 2941 688676 0.040466304503 9.040466304503 3 7504 7504 22512 168930048
1746	7545861 85 2941 688676 0.040466304503 9.040466304503 3 0 0 0 0
1757	7545946 85 2941 688676 0.040466304503 9.040466304503 3 0 0 0 0
1767	7546031 94 3007 688751 0.041518176082 9.041518176082 3 7504 7504 22512 168930048
1768	7546125 94 3007 688751 0.041518176082 9.041518176082 3 7504 7504 22512 168930048
1770	7546219 85 3007 688751 0.041518176082 9.041518176082 3 0 0 0 0
1781	7546304 85 3007 688751 0.041518176082 9.041518176082 3 0 0 0 0
1791	7546389 94 3502 689289 0.047532676856 9.047532676856 3 7504 7504 22512 168930048
1792	7546483 94 3502 689289 0.047532676856 9.047532676856 3 7504 7504 22512 168930048
1794	7546577 85 3502 689289 0.047532676856 9.047532676856 3 0 0 0 0
1805	7546662 85 3502 689289 0.047532676856 9.047532676856 3 0 0 0 0
1815	7546747 94 3597 689389 0.048413756283 9.048413756283 3 7504 7504 22512 168930048
1816	7546841 94 3597 689389 0.048413756283 9.048413756283 3 7504 7504 22512 168930048
1818	7546935 85 3597 689389 0.048413756283 9.048413756283 3 0 0 0 0
1829	7547020 85 3597 689389 0.048413756283 9.048413756283 3 0 0 0 0
1839	7547105 94 3899 689696 0.051566809383 9.051566809383 3 7504 7504 22512 168930048
1840	7547199 94 3899 689696 0.051566809383 9.051566809383 3 7504 7504 22512 168930048
1842	7547293 85 3899 689696 0.051566809383 9.051566809383 3 0 0 0 0
1853	7547378 85 3899 689696 0.051566809383 9.051566809383 3 0 0 0 0
1863	7547463 91 3971 689776 0.05273845314 9.05273845314 3 7504 7504 22512 168930048
1864	7547554 91 3971 689776 0.05273845314 9.05273845314 3 7504 7504 22512 168930048
1866	7547645 82 3971 689776 0.05273845314 9.05273845314 3 0 0 0 0
1877	7547727 82 3971 689776 0.05273845314 9.05273845314 3 0 0 0 0
1887	7547809 94 3979 689783 0.052847558425 9.052847558425 3 7504 7504 22512 168930048
1888	7547903 94 3979 689783 0.052847558425 9.052847558425 3 7504 7504 22512 168930048
1890	7547997 85 3979 689783 0.052847558425 9.052847558425 3 0 0 0 0
1901	7548082 85 3979 689783 0.052847558425 9.052847558425 3 0 0 0 0
1911	7548167 94 4632 690262 0.057084039294 9.057084039294 3 7504 7504 22512 168930048
1912	7548261 94 4632 690262 0.057084039294 9.057084039294 3 7504 7504 22512 168930048
1914	7548355 85 4632 690262 0.057084039294 9.057084039294 3 0 0 0 0
1925	7548440 85 4632 690262 0.057084039294 9.057084039294 3 0 0 0 0
1935	7548525 94 4909 690612 0.061955560849 9.061955560849 3 7504 7504 22512 168930048
1936	7548619 94 4909 690612 0.061955560849 9.061955560849 3 7504 7504 22512 168930048
1938	7548713 85 4909 690612 0.061955560849 9.061955560849 3 0 0 0 0
1949	7548798 85 4909 690612 0.061955560849 9.061955560849 3 0 0 0 0
1959	7548883 94 4917 690619 0.061974657003 9.061974657003 3 7504 7504 22512 168930048
1960	7548977 94 4917 690619 0.061974657003 9.061974657003 3 7504 7504 22512 168930048
1962	7549071 85 4917 690619 0.061974657003 9.061974657003 3 0 0 0 0
1973	7549156 85 4917 690619 0.061974657003 9.061974657003 3 0 0 0 0
1983	7549241 94 5198 690910 0.064453871725 9.064453871725 3 7504 7504 22512 168930048
1984	7549335 94 5198 690910 0.064453871725 9.064453871725 3 7504 7504 22512 168930048
1986	7549429 85 5198 690910 0.064453871725 9.064453871725 3 0 0 0 0
1997	7549514 85 5198 690910 0.064453871725 9.064453871725 3 0 0 0 0
2007	7549599 94 6055 691938 0.075361895796 9.075361895796 3 7504 7504 22512 168930048
2008	7549693 94 6055 691938 0.075361895796 9.075361895796 3 7504 7504 22512 168930048
2010	7549787 85 6055 691938 0.075361895796 9.075361895796 3 0 0 0 0
2021	7549872 85 6055 691938 0.075361895796 9.075361895796 3 0 0 0 0
2031	7549957 94 6837 692963 0.086746254247 9.086746254247 3 7504 7504 22512 168930048
2032	7550051 94 6837 692963 0.086746254247 9.086746254247 3 7504 7504 22512 168930048
2034	7550145 85 6837 692963 0.086746254247 9.086746254247 3 0 0 0 0
2045	7550230 85 6837 692963 0.086746254247 9.086746254247 3 0 0 0 0
2055	7550315 94 7191 693391 0.091364573385 9.091364573385 3 7504 7504 22512 168930048
2056	7550409 94 7191 693391 0.091364573385 9.091364573385 3 7504 7504 22512 168930048
2058	7550503 85 7191 693391 0.091364573385 9.091364573385 3 0 0 0 0
2069	7550588 85 7191 693391 0.091364573385 9.091364573385 3 0 0 0 0
