file 10374335 1589564605                                        
version 2
run CAIN-51-20200515-14:37:51-17085
attr configname CAIN
attr datetime 20200515-14:37:51
attr dist 200
attr experiment CAIN
attr inifile omnetpp.ini
attr iterationvars "$numUe=25, $pwr=-50, $dist=200, $mob=\"./movements/RWPRPGM-0.0.movements\""
attr iterationvars2 "$numUe=25, $pwr=-50, $dist=200, $mob=\"./movements/RWPRPGM-0.0.movements\", $repetition=1"
attr measurement "$numUe=25, $pwr=-50, $dist=200, $mob=\"./movements/RWPRPGM-0.0.movements\""
attr mob "\"./movements/RWPRPGM-0.0.movements\""
attr network lte.simulations.networks.CAIN
attr numUe 25
attr processid 17085
attr pwr -50
attr repetition 1
attr replication #1
attr resultdir results
attr runnumber 51
attr seedset 1
param **.**.amcMode "\"AUTO\""
param **.amcMode "\"D2D\""
param **.cainNetwork true
param **.channelControl.alpha 1.0
param **.channelControl.carrierFrequency 2100e+6Hz
param **.channelControl.pMax 10W
param **.d2dCqi 7
param **.deployer.numRbDl 50
param **.deployer.numRbUl 50
param **.distThresh ${dist=200}
param **.fbDelay 1
param **.feedbackComputation "xmldoc(\"config_channel.xml\")"
param **.mobility.constraintAreaMaxX 1000m
param **.mobility.constraintAreaMaxY 1000m
param **.mobility.constraintAreaMaxZ 0m
param **.mobility.constraintAreaMinX 0m
param **.mobility.constraintAreaMinY 0m
param **.mobility.constraintAreaMinZ 0m
param **.nic.phy.channelModel "xmldoc(\"config_channel.xml\")"
param **.numBands 50
param **.pwrThresh "${pwr= -50}"
param **.qtdThresh 3
param **.rbAllocationType "\"localized\""
param **.routingRecorder.enabled false
param **.tcpApp[*].tClose -1s
param **.ueD2DTx[*].mobility.changeAngleBy "normal(0deg, 30deg)"
param **.ueD2DTx[*].mobility.changeInterval "normal(5s, 0.1s)"
param **.ueD2DTx[*].mobility.nodeId -1
param **.ueD2DTx[*].mobility.speed "normal(2mps, 0.01mps)"
param **.ueD2DTx[*].mobility.traceFile "${mob=\"./movements/RWP-0.0.movements\",\"./movements/RWP-0.5.movements\",\"./movements/RPGM-0.0.movements\",\"./movements/RPGM-0.5.movements\",\"./movements/RWPRPGM-0.0.movements\",\"./movements/RWPRPGM-0.5.movements\"}"
param **.ueD2DTx[*].mobilityType "\"BonnMotionMobility\""
param **.usePreconfiguredTxParams false
param *.eNodeB*.numX2Apps 1
param *.eNodeB*.x2App[*].server.localPort "5000 + ancestorIndex(1)"
param *.eNodeB.d2dCapable false
param *.eNodeB.mobility.initFromDisplayString false
param *.eNodeB.mobility.initialX 300m
param *.eNodeB.mobility.initialY 300m
param *.eNodeB.nic.phy.enableD2DCqiReporting true
param *.eNodeB.txPower 19952.62315mw
param *.eNodeB.x2App[0].client.connectAddress "\"eNodeB1%x2ppp0\""
param *.eNodeB1.d2dCapable true
param *.eNodeB1.mobility.initFromDisplayString false
param *.eNodeB1.mobility.initialX 700m
param *.eNodeB1.mobility.initialY 300m
param *.eNodeB1.nic.phy.enableD2DCqiReporting true
param *.eNodeB1.txPower 19952.62315mw
param *.eNodeB1.x2App[0].client.connectAddress "\"eNodeB%x2ppp0\""
param *.extCell[*].bandAllocationType "\"FULL_ALLOC\""
param *.extCell[*].bandUtilization 0.5
param *.extCell[*].txDirection "\"ANISOTROPIC\""
param *.extCell[*].txPower 20
param *.extCell[0].position_x 100m
param *.extCell[0].position_y 600m
param *.extCell[0].txAngle 315
param *.extCell[1].position_x 600m
param *.extCell[1].position_y 600m
param *.extCell[1].txAngle 225
param *.numExtCells 2
param *.numUeCell 0
param *.numUeD2DRx 1
param *.numUeD2DTx 1
param *.ue*.macCellId 1
param *.ue*.masterId 1
param *.ue*.mobility.initFromDisplayString false
param *.ue*[0].macCellId 1
param *.ue*[0].masterId 1
param *.ue*[0].mobility.initFromDisplayString false
param *.ueD2D*.numTcpApps 1
param *.ueD2D*[*].d2dCapable true
param *.ueD2D*[0].d2dCapable false
param *.ueD2D*[0].numTcpApps 1
param *.ueD2DRx[0].mobility.initialX 310m
param *.ueD2DRx[0].mobility.initialY 350m
param *.ueD2DRx[0].tcpApp[*].localPort 1000
param *.ueD2DRx[0].tcpApp[*].typename "\"TCPSinkApp\""
param *.ueD2DTx*.nic.d2dPeerAddresses "\"ueD2DTx[1]\""
param *.ueD2DTx*.tcpApp[*].connectAddress "\"ueD2DTx[0]\""
param *.ueD2DTx*.tcpApp[*].localAddress "\"ueD2DTx\""
param *.ueD2DTx*.tcpApp[*].localPort 1000
param *.ueD2DTx*.tcpApp[*].sendBytes 1GiB
param *.ueD2DTx*.tcpApp[*].typename "\"TCPSessionApp\""
param *.ueD2DTx*.tcpApp[0].active true
param *.ueD2DTx*.tcpApp[0].connectPort 1000
param *.ueD2DTx*.tcpApp[0].tOpen uniform(0.010s,0.1s)
param *.ueD2DTx*.tcpApp[0].tSend uniform(0.15s,0.5s)
param *.ueD2DTx[0].mobility.initialX 290m
param *.ueD2DTx[0].mobility.initialY 350m
param *.ueD2DTx[0].tcpApp[*].localPort 1000
param *.ueD2DTx[0].tcpApp[*].sendBytes 1GiB
param *.ueD2DTx[0].tcpApp[*].typename "\"TCPSessionApp\""
param *.ueD2DTx[0].tcpApp[0].active true
param *.ueD2DTx[0].tcpApp[0].connectAddress "\"ueD2DRx[0]\""
param *.ueD2DTx[0].tcpApp[0].connectPort 1000
param *.ueD2DTx[0].tcpApp[0].localAddress "\"ueD2DTx[0]\""
param *.ueD2DTx[0].tcpApp[0].tOpen uniform(0.010s,0.1s)
param *.ueD2DTx[0].tcpApp[0].tSend uniform(0.15s,0.5s)

vector 8  CAIN.server.ppp[0].queue  queueLength:vector  ETV
attr interpolationmode  sample-hold
attr title  "queue length, vector"
vector 9  CAIN.server.ppp[0].ppp  txState:vector  ETV
attr interpolationmode  sample-hold
attr title  "tx state, vector"
vector 24  CAIN.router.ppp[0].queue  queueLength:vector  ETV
attr interpolationmode  sample-hold
attr title  "queue length, vector"
vector 25  CAIN.router.ppp[0].ppp  txState:vector  ETV
attr interpolationmode  sample-hold
attr title  "tx state, vector"
vector 35  CAIN.router.ppp[1].queue  queueLength:vector  ETV
attr interpolationmode  sample-hold
attr title  "queue length, vector"
vector 36  CAIN.router.ppp[1].ppp  txState:vector  ETV
attr interpolationmode  sample-hold
attr title  "tx state, vector"
vector 56  CAIN.pgw.ppp[0].queue  queueLength:vector  ETV
attr interpolationmode  sample-hold
attr title  "queue length, vector"
vector 57  CAIN.pgw.ppp[0].ppp  txState:vector  ETV
attr interpolationmode  sample-hold
attr title  "tx state, vector"
vector 67  CAIN.pgw.ppp[1].queue  queueLength:vector  ETV
attr interpolationmode  sample-hold
attr title  "queue length, vector"
vector 68  CAIN.pgw.ppp[1].ppp  txState:vector  ETV
attr interpolationmode  sample-hold
attr title  "tx state, vector"
vector 78  CAIN.pgw.pppInterface.queue  queueLength:vector  ETV
attr interpolationmode  sample-hold
attr title  "queue length, vector"
vector 79  CAIN.pgw.pppInterface.ppp  txState:vector  ETV
attr interpolationmode  sample-hold
attr title  "tx state, vector"
vector 120  CAIN.eNodeB.pppIf.queue  queueLength:vector  ETV
attr interpolationmode  sample-hold
attr title  "queue length, vector"
vector 121  CAIN.eNodeB.pppIf.ppp  txState:vector  ETV
attr interpolationmode  sample-hold
attr title  "tx state, vector"
vector 131  CAIN.eNodeB.x2ppp[0].queue  queueLength:vector  ETV
attr interpolationmode  sample-hold
attr title  "queue length, vector"
vector 132  CAIN.eNodeB.x2ppp[0].ppp  txState:vector  ETV
attr interpolationmode  sample-hold
attr title  "tx state, vector"
vector 178  CAIN.eNodeB1.pppIf.queue  queueLength:vector  ETV
attr interpolationmode  sample-hold
attr title  "queue length, vector"
vector 179  CAIN.eNodeB1.pppIf.ppp  txState:vector  ETV
attr interpolationmode  sample-hold
attr title  "tx state, vector"
vector 189  CAIN.eNodeB1.x2ppp[0].queue  queueLength:vector  ETV
attr interpolationmode  sample-hold
attr title  "queue length, vector"
vector 190  CAIN.eNodeB1.x2ppp[0].ppp  txState:vector  ETV
attr interpolationmode  sample-hold
attr title  "tx state, vector"
vector 231  CAIN.ueD2DTx[0].nic.phy  servingCell:vector  ETV
attr source  servingCell
attr title  "ID of the serving eNodeB for the UE, vector"
attr unit  ""
vector 263  CAIN.ueD2DTx[1].nic.phy  servingCell:vector  ETV
attr source  servingCell
attr title  "ID of the serving eNodeB for the UE, vector"
attr unit  ""
vector 295  CAIN.ueD2DTx[2].nic.phy  servingCell:vector  ETV
attr source  servingCell
attr title  "ID of the serving eNodeB for the UE, vector"
attr unit  ""
vector 327  CAIN.ueD2DTx[3].nic.phy  servingCell:vector  ETV
attr source  servingCell
attr title  "ID of the serving eNodeB for the UE, vector"
attr unit  ""
vector 359  CAIN.ueD2DTx[4].nic.phy  servingCell:vector  ETV
attr source  servingCell
attr title  "ID of the serving eNodeB for the UE, vector"
attr unit  ""
vector 391  CAIN.ueD2DTx[5].nic.phy  servingCell:vector  ETV
attr source  servingCell
attr title  "ID of the serving eNodeB for the UE, vector"
attr unit  ""
vector 423  CAIN.ueD2DTx[6].nic.phy  servingCell:vector  ETV
attr source  servingCell
attr title  "ID of the serving eNodeB for the UE, vector"
attr unit  ""
vector 455  CAIN.ueD2DTx[7].nic.phy  servingCell:vector  ETV
attr source  servingCell
attr title  "ID of the serving eNodeB for the UE, vector"
attr unit  ""
vector 487  CAIN.ueD2DTx[8].nic.phy  servingCell:vector  ETV
attr source  servingCell
attr title  "ID of the serving eNodeB for the UE, vector"
attr unit  ""
vector 519  CAIN.ueD2DTx[9].nic.phy  servingCell:vector  ETV
attr source  servingCell
attr title  "ID of the serving eNodeB for the UE, vector"
attr unit  ""
vector 551  CAIN.ueD2DTx[10].nic.phy  servingCell:vector  ETV
attr source  servingCell
attr title  "ID of the serving eNodeB for the UE, vector"
attr unit  ""
vector 583  CAIN.ueD2DTx[11].nic.phy  servingCell:vector  ETV
attr source  servingCell
attr title  "ID of the serving eNodeB for the UE, vector"
attr unit  ""
vector 615  CAIN.ueD2DTx[12].nic.phy  servingCell:vector  ETV
attr source  servingCell
attr title  "ID of the serving eNodeB for the UE, vector"
attr unit  ""
vector 647  CAIN.ueD2DTx[13].nic.phy  servingCell:vector  ETV
attr source  servingCell
attr title  "ID of the serving eNodeB for the UE, vector"
attr unit  ""
vector 679  CAIN.ueD2DTx[14].nic.phy  servingCell:vector  ETV
attr source  servingCell
attr title  "ID of the serving eNodeB for the UE, vector"
attr unit  ""
vector 711  CAIN.ueD2DTx[15].nic.phy  servingCell:vector  ETV
attr source  servingCell
attr title  "ID of the serving eNodeB for the UE, vector"
attr unit  ""
vector 743  CAIN.ueD2DTx[16].nic.phy  servingCell:vector  ETV
attr source  servingCell
attr title  "ID of the serving eNodeB for the UE, vector"
attr unit  ""
vector 775  CAIN.ueD2DTx[17].nic.phy  servingCell:vector  ETV
attr source  servingCell
attr title  "ID of the serving eNodeB for the UE, vector"
attr unit  ""
vector 807  CAIN.ueD2DTx[18].nic.phy  servingCell:vector  ETV
attr source  servingCell
attr title  "ID of the serving eNodeB for the UE, vector"
attr unit  ""
vector 839  CAIN.ueD2DTx[19].nic.phy  servingCell:vector  ETV
attr source  servingCell
attr title  "ID of the serving eNodeB for the UE, vector"
attr unit  ""
vector 871  CAIN.ueD2DTx[20].nic.phy  servingCell:vector  ETV
attr source  servingCell
attr title  "ID of the serving eNodeB for the UE, vector"
attr unit  ""
vector 903  CAIN.ueD2DTx[21].nic.phy  servingCell:vector  ETV
attr source  servingCell
attr title  "ID of the serving eNodeB for the UE, vector"
attr unit  ""
vector 935  CAIN.ueD2DTx[22].nic.phy  servingCell:vector  ETV
attr source  servingCell
attr title  "ID of the serving eNodeB for the UE, vector"
attr unit  ""
vector 967  CAIN.ueD2DTx[23].nic.phy  servingCell:vector  ETV
attr source  servingCell
attr title  "ID of the serving eNodeB for the UE, vector"
attr unit  ""
vector 999  CAIN.ueD2DTx[24].nic.phy  servingCell:vector  ETV
attr source  servingCell
attr title  "ID of the serving eNodeB for the UE, vector"
attr unit  ""
vector 1023  CAIN.eNodeB.sctp  "Throughput of Association 3"  ETV
vector 1045  CAIN.eNodeB1.sctp  "Throughput of Association 4"  ETV
vector 1067  CAIN.eNodeB.sctp  "Throughput of Association 1"  ETV
vector 1087  CAIN.eNodeB.sctp  "Fast Recovery State 1:10.0.5.2"  ETV
vector 1116  CAIN.eNodeB1.sctp  "Throughput of Association 2"  ETV
vector 1136  CAIN.eNodeB1.sctp  "Fast Recovery State 2:10.0.5.1"  ETV
vector 128  CAIN.eNodeB.x2ppp[0].queue  rcvdPk:vector(packetBytes)  ETV
attr interpolationmode  none
attr title  "received packets, vector(packetBytes)"
vector 130  CAIN.eNodeB.x2ppp[0].queue  queueingTime:vector  ETV
attr interpolationmode  none
attr title  "queueing time, vector"
vector 186  CAIN.eNodeB1.x2ppp[0].queue  rcvdPk:vector(packetBytes)  ETV
attr interpolationmode  none
attr title  "received packets, vector(packetBytes)"
vector 188  CAIN.eNodeB1.x2ppp[0].queue  queueingTime:vector  ETV
attr interpolationmode  none
attr title  "queueing time, vector"
vector 137  CAIN.eNodeB.x2ppp[0].ppp  rcvdPkFromHL:vector(packetBytes)  ETV
attr interpolationmode  none
attr source  packetReceivedFromUpper
attr title  "packets received from higher layer, vector(packetBytes)"
vector 133  CAIN.eNodeB.x2ppp[0].ppp  txPk:vector(packetBytes)  ETV
attr interpolationmode  none
attr source  packetSentToLower
attr title  "packets transmitted, vector(packetBytes)"
vector 195  CAIN.eNodeB1.x2ppp[0].ppp  rcvdPkFromHL:vector(packetBytes)  ETV
attr interpolationmode  none
attr source  packetReceivedFromUpper
attr title  "packets received from higher layer, vector(packetBytes)"
vector 191  CAIN.eNodeB1.x2ppp[0].ppp  txPk:vector(packetBytes)  ETV
attr interpolationmode  none
attr source  packetSentToLower
attr title  "packets transmitted, vector(packetBytes)"
vector 192  CAIN.eNodeB1.x2ppp[0].ppp  rxPkOk:vector(packetBytes)  ETV
attr interpolationmode  none
attr source  rxPkOk
attr title  "packets received OK, vector(packetBytes)"
vector 196  CAIN.eNodeB1.x2ppp[0].ppp  passedUpPk:vector(packetBytes)  ETV
attr interpolationmode  none
attr source  packetSentToUpper
attr title  "packets passed to higher layer, vector(packetBytes)"
vector 134  CAIN.eNodeB.x2ppp[0].ppp  rxPkOk:vector(packetBytes)  ETV
attr interpolationmode  none
attr source  rxPkOk
attr title  "packets received OK, vector(packetBytes)"
vector 138  CAIN.eNodeB.x2ppp[0].ppp  passedUpPk:vector(packetBytes)  ETV
attr interpolationmode  none
attr source  packetSentToUpper
attr title  "packets passed to higher layer, vector(packetBytes)"
vector 1165  CAIN.eNodeB1.sctp  "Throughput of Association 4"  ETV
vector 1042  CAIN.eNodeB1.sctp  "Peer Rwnd 4"  ETV
vector 1185  CAIN.eNodeB1.sctp  "Fast Recovery State 5:10.0.4.1"  ETV
vector 1212  CAIN.eNodeB1.sctp  "Fast Recovery State 5:10.0.2.2"  ETV
vector 1239  CAIN.eNodeB1.sctp  "Fast Recovery State 5:10.0.5.1"  ETV
vector 1268  CAIN.eNodeB.sctp  "Throughput of Association 3"  ETV
vector 1020  CAIN.eNodeB.sctp  "Peer Rwnd 3"  ETV
vector 1288  CAIN.eNodeB.sctp  "Fast Recovery State 6:10.0.4.2"  ETV
vector 1315  CAIN.eNodeB.sctp  "Fast Recovery State 6:10.0.3.2"  ETV
vector 1342  CAIN.eNodeB.sctp  "Fast Recovery State 6:10.0.5.2"  ETV
vector 1064  CAIN.eNodeB.sctp  "Peer Rwnd 1"  ETV
vector 1369  CAIN.eNodeB.sctp  "Fast Recovery State 1:10.0.4.2"  ETV
vector 1396  CAIN.eNodeB.sctp  "Fast Recovery State 1:10.0.3.2"  ETV
vector 1113  CAIN.eNodeB1.sctp  "Peer Rwnd 2"  ETV
vector 1423  CAIN.eNodeB1.sctp  "Fast Recovery State 2:10.0.4.1"  ETV
vector 1450  CAIN.eNodeB1.sctp  "Fast Recovery State 2:10.0.2.2"  ETV
vector 1195  CAIN.eNodeB1.sctp  "Slow Start Threshold 5:10.0.2.2"  ETV
vector 1196  CAIN.eNodeB1.sctp  "Congestion Window 5:10.0.2.2"  ETV
vector 1197  CAIN.eNodeB1.sctp  "Bandwidth 5:10.0.2.2"  ETV
vector 1200  CAIN.eNodeB1.sctp  "HB Sent 5:10.0.2.2"  ETV
vector 1193  CAIN.eNodeB1.sctp  "RTO 5:10.0.2.2"  ETV
vector 1168  CAIN.eNodeB1.sctp  "Slow Start Threshold 5:10.0.4.1"  ETV
vector 1169  CAIN.eNodeB1.sctp  "Congestion Window 5:10.0.4.1"  ETV
vector 1170  CAIN.eNodeB1.sctp  "Bandwidth 5:10.0.4.1"  ETV
vector 1173  CAIN.eNodeB1.sctp  "HB Sent 5:10.0.4.1"  ETV
vector 1166  CAIN.eNodeB1.sctp  "RTO 5:10.0.4.1"  ETV
vector 1222  CAIN.eNodeB1.sctp  "Slow Start Threshold 5:10.0.5.1"  ETV
vector 1223  CAIN.eNodeB1.sctp  "Congestion Window 5:10.0.5.1"  ETV
vector 1224  CAIN.eNodeB1.sctp  "Bandwidth 5:10.0.5.1"  ETV
vector 1220  CAIN.eNodeB1.sctp  "RTO 5:10.0.5.1"  ETV
vector 1298  CAIN.eNodeB.sctp  "Slow Start Threshold 6:10.0.3.2"  ETV
vector 1299  CAIN.eNodeB.sctp  "Congestion Window 6:10.0.3.2"  ETV
vector 1300  CAIN.eNodeB.sctp  "Bandwidth 6:10.0.3.2"  ETV
vector 1303  CAIN.eNodeB.sctp  "HB Sent 6:10.0.3.2"  ETV
vector 1296  CAIN.eNodeB.sctp  "RTO 6:10.0.3.2"  ETV
vector 1271  CAIN.eNodeB.sctp  "Slow Start Threshold 6:10.0.4.2"  ETV
vector 1272  CAIN.eNodeB.sctp  "Congestion Window 6:10.0.4.2"  ETV
vector 1273  CAIN.eNodeB.sctp  "Bandwidth 6:10.0.4.2"  ETV
vector 1276  CAIN.eNodeB.sctp  "HB Sent 6:10.0.4.2"  ETV
vector 1269  CAIN.eNodeB.sctp  "RTO 6:10.0.4.2"  ETV
vector 1325  CAIN.eNodeB.sctp  "Slow Start Threshold 6:10.0.5.2"  ETV
vector 1326  CAIN.eNodeB.sctp  "Congestion Window 6:10.0.5.2"  ETV
vector 1327  CAIN.eNodeB.sctp  "Bandwidth 6:10.0.5.2"  ETV
vector 1323  CAIN.eNodeB.sctp  "RTO 6:10.0.5.2"  ETV
vector 1076  CAIN.eNodeB.sctp  "HB ACK Sent 1:10.0.5.2"  ETV
vector 1077  CAIN.eNodeB.sctp  "HB Received 1:10.0.5.2"  ETV
vector 1125  CAIN.eNodeB1.sctp  "HB ACK Sent 2:10.0.5.1"  ETV
vector 1126  CAIN.eNodeB1.sctp  "HB Received 2:10.0.5.1"  ETV
vector 1379  CAIN.eNodeB.sctp  "Slow Start Threshold 1:10.0.3.2"  ETV
vector 1380  CAIN.eNodeB.sctp  "Congestion Window 1:10.0.3.2"  ETV
vector 1381  CAIN.eNodeB.sctp  "Bandwidth 1:10.0.3.2"  ETV
vector 1384  CAIN.eNodeB.sctp  "HB Sent 1:10.0.3.2"  ETV
vector 1377  CAIN.eNodeB.sctp  "RTO 1:10.0.3.2"  ETV
vector 1352  CAIN.eNodeB.sctp  "Slow Start Threshold 1:10.0.4.2"  ETV
vector 1353  CAIN.eNodeB.sctp  "Congestion Window 1:10.0.4.2"  ETV
vector 1354  CAIN.eNodeB.sctp  "Bandwidth 1:10.0.4.2"  ETV
vector 1357  CAIN.eNodeB.sctp  "HB Sent 1:10.0.4.2"  ETV
vector 1350  CAIN.eNodeB.sctp  "RTO 1:10.0.4.2"  ETV
vector 1070  CAIN.eNodeB.sctp  "Slow Start Threshold 1:10.0.5.2"  ETV
vector 1071  CAIN.eNodeB.sctp  "Congestion Window 1:10.0.5.2"  ETV
vector 1072  CAIN.eNodeB.sctp  "Bandwidth 1:10.0.5.2"  ETV
vector 1068  CAIN.eNodeB.sctp  "RTO 1:10.0.5.2"  ETV
vector 1433  CAIN.eNodeB1.sctp  "Slow Start Threshold 2:10.0.2.2"  ETV
vector 1434  CAIN.eNodeB1.sctp  "Congestion Window 2:10.0.2.2"  ETV
vector 1435  CAIN.eNodeB1.sctp  "Bandwidth 2:10.0.2.2"  ETV
vector 1438  CAIN.eNodeB1.sctp  "HB Sent 2:10.0.2.2"  ETV
vector 1431  CAIN.eNodeB1.sctp  "RTO 2:10.0.2.2"  ETV
vector 1406  CAIN.eNodeB1.sctp  "Slow Start Threshold 2:10.0.4.1"  ETV
vector 1407  CAIN.eNodeB1.sctp  "Congestion Window 2:10.0.4.1"  ETV
vector 1408  CAIN.eNodeB1.sctp  "Bandwidth 2:10.0.4.1"  ETV
vector 1411  CAIN.eNodeB1.sctp  "HB Sent 2:10.0.4.1"  ETV
vector 1404  CAIN.eNodeB1.sctp  "RTO 2:10.0.4.1"  ETV
vector 1119  CAIN.eNodeB1.sctp  "Slow Start Threshold 2:10.0.5.1"  ETV
vector 1120  CAIN.eNodeB1.sctp  "Congestion Window 2:10.0.5.1"  ETV
vector 1121  CAIN.eNodeB1.sctp  "Bandwidth 2:10.0.5.1"  ETV
vector 1117  CAIN.eNodeB1.sctp  "RTO 2:10.0.5.1"  ETV
vector 1333  CAIN.eNodeB.sctp  "HB ACK Received 6:10.0.5.2"  ETV
vector 1324  CAIN.eNodeB.sctp  "RTT 6:10.0.5.2"  ETV
vector 1230  CAIN.eNodeB1.sctp  "HB ACK Received 5:10.0.5.1"  ETV
vector 1221  CAIN.eNodeB1.sctp  "RTT 5:10.0.5.1"  ETV
vector 1331  CAIN.eNodeB.sctp  "HB ACK Sent 6:10.0.5.2"  ETV
vector 1332  CAIN.eNodeB.sctp  "HB Received 6:10.0.5.2"  ETV
vector 1228  CAIN.eNodeB1.sctp  "HB ACK Sent 5:10.0.5.1"  ETV
vector 1229  CAIN.eNodeB1.sctp  "HB Received 5:10.0.5.1"  ETV
vector 1127  CAIN.eNodeB1.sctp  "HB ACK Received 2:10.0.5.1"  ETV
vector 1118  CAIN.eNodeB1.sctp  "RTT 2:10.0.5.1"  ETV
vector 1078  CAIN.eNodeB.sctp  "HB ACK Received 1:10.0.5.2"  ETV
vector 1069  CAIN.eNodeB.sctp  "RTT 1:10.0.5.2"  ETV
vector 96  CAIN.eNodeB.nic.mac  receivedPacketFromLowerLayer:vector(packetBytes)  ETV
attr interpolationmode  none
attr source  receivedPacketFromLowerLayer
vector 1465  CAIN.eNodeB.sctp  "SendQueue of Association 6"  ETV
vector 1328  CAIN.eNodeB.sctp  "TSN Sent 6:10.0.5.2"  ETV
vector 1335  CAIN.eNodeB.sctp  "Outstanding Bytes 6:10.0.5.2"  ETV
vector 1008  CAIN.eNodeB.sctp  "Outstanding Bytes 3:Total"  ETV
vector 1334  CAIN.eNodeB.sctp  "Queued Sent Bytes 6:10.0.5.2"  ETV
vector 1007  CAIN.eNodeB.sctp  "Queued Sent Bytes 3:Total"  ETV
vector 1123  CAIN.eNodeB1.sctp  "TSN Received 2:10.0.5.1"  ETV
vector 1099  CAIN.eNodeB1.sctp  "Queued Received Bytes 2:Total"  ETV
vector 1095  CAIN.eNodeB1.sctp  "Advertised Receiver Window 2"  ETV
vector 1104  CAIN.eNodeB1.sctp  "Number of Total Gap Blocks Stored 2"  ETV
vector 1105  CAIN.eNodeB1.sctp  "Number of Revokable Gap Blocks Stored 2"  ETV
vector 1106  CAIN.eNodeB1.sctp  "Number of Non-Revokable Gap Blocks Stored 2"  ETV
vector 1107  CAIN.eNodeB1.sctp  "Number of Duplicate TSNs Stored 2"  ETV
vector 1111  CAIN.eNodeB1.sctp  "Length of SACK Sent 2"  ETV
vector 1108  CAIN.eNodeB1.sctp  "Number of Revokable Gap Blocks Sent 2"  ETV
vector 1109  CAIN.eNodeB1.sctp  "Number of Non-Revokable Gap Blocks Sent 2"  ETV
vector 1110  CAIN.eNodeB1.sctp  "Number of Duplicate TSNs Sent 2"  ETV
vector 1115  CAIN.eNodeB1.sctp  "End to End Delay of Association 2"  ETV
vector 199  CAIN.eNodeB1.x2App[0].client  rcvdPk:vector(packetBytes)  ETV
attr interpolationmode  none
attr source  rcvdPk
attr title  "packets received, vector(packetBytes)"
vector 1464  CAIN.eNodeB.sctp  "Number of Gap Blocks in Last SACK of Association 6"  ETV
vector 1009  CAIN.eNodeB.sctp  "Number of Revokable Gap Blocks in SACK 3"  ETV
vector 1010  CAIN.eNodeB.sctp  "Number of Non-Revokable Gap Blocks in SACK 3"  ETV
vector 1345  CAIN.eNodeB.sctp  "TSN Acked CumAck 6:10.0.5.2"  ETV
vector 1311  CAIN.eNodeB.sctp  "Number of Gap Acked Chunks in Last SACK 6:10.0.3.2"  ETV
vector 1312  CAIN.eNodeB.sctp  "Number of Non-Revokable Gap Acked Chunks in Last SACK 6:10.0.3.2"  ETV
vector 1313  CAIN.eNodeB.sctp  "Number of Gap Missed Chunks in Last SACK 6:10.0.3.2"  ETV
vector 1284  CAIN.eNodeB.sctp  "Number of Gap Acked Chunks in Last SACK 6:10.0.4.2"  ETV
vector 1285  CAIN.eNodeB.sctp  "Number of Non-Revokable Gap Acked Chunks in Last SACK 6:10.0.4.2"  ETV
vector 1286  CAIN.eNodeB.sctp  "Number of Gap Missed Chunks in Last SACK 6:10.0.4.2"  ETV
vector 1338  CAIN.eNodeB.sctp  "Number of Gap Acked Chunks in Last SACK 6:10.0.5.2"  ETV
vector 1339  CAIN.eNodeB.sctp  "Number of Non-Revokable Gap Acked Chunks in Last SACK 6:10.0.5.2"  ETV
vector 1340  CAIN.eNodeB.sctp  "Number of Gap Missed Chunks in Last SACK 6:10.0.5.2"  ETV
vector 1019  CAIN.eNodeB.sctp  "Arwnd in Last SACK 3"  ETV
vector 1347  CAIN.eNodeB.sctp  "TSN PseudoCumAck 6:10.0.5.2"  ETV
vector 1348  CAIN.eNodeB.sctp  "TSN RTXPseudoCumAck 6:10.0.5.2"  ETV
vector 1341  CAIN.eNodeB.sctp  "Partial Bytes Acked 6:10.0.5.2"  ETV
vector 1493  CAIN.ueD2DTx[13].tcp  tcpRcvQueueBytes  ETV
vector 1480  CAIN.ueD2DTx[13].tcp  "advertised window"  ETV
vector 1479  CAIN.ueD2DTx[13].tcp  "receive window"  ETV
vector 1482  CAIN.ueD2DTx[13].tcp  "sent ack"  ETV
vector 621  CAIN.ueD2DTx[13].nic.pdcpRrc  receivedPacketFromUpperLayer:vector(packetBytes)  ETV
attr interpolationmode  none
attr source  receivedPacketFromUpperLayer
vector 624  CAIN.ueD2DTx[13].nic.pdcpRrc  sentPacketToLowerLayer:vector(packetBytes)  ETV
attr interpolationmode  none
attr source  sentPacketToLowerLayer
vector 625  CAIN.ueD2DTx[13].nic.mac  receivedPacketFromUpperLayer:vector(packetBytes)  ETV
attr interpolationmode  none
attr source  receivedPacketFromUpperLayer
vector 635  CAIN.ueD2DTx[13].nic.mac  CainHopMessageSent:vector  ETV
attr interpolationmode  none
attr title  "# of Sent CAIN hop message, vector"
vector 628  CAIN.ueD2DTx[13].nic.mac  sentPacketToLowerLayer:vector(packetBytes)  ETV
attr interpolationmode  none
attr source  sentPacketToLowerLayer
vector 690  CAIN.ueD2DTx[15].nic.mac  receivedPacketFromLowerLayer:vector(packetBytes)  ETV
attr interpolationmode  none
attr source  receivedPacketFromLowerLayer
vector 692  CAIN.ueD2DTx[15].nic.mac  sentPacketToLowerLayer:vector(packetBytes)  ETV
attr interpolationmode  none
attr source  sentPacketToLowerLayer
vector 946  CAIN.ueD2DTx[23].nic.mac  receivedPacketFromLowerLayer:vector(packetBytes)  ETV
attr interpolationmode  none
attr source  receivedPacketFromLowerLayer
vector 948  CAIN.ueD2DTx[23].nic.mac  sentPacketToLowerLayer:vector(packetBytes)  ETV
attr interpolationmode  none
attr source  sentPacketToLowerLayer
vector 111  CAIN.eNodeB.nic.mac  racpkt:vector  ETV
attr interpolationmode  none
attr title  "eNB received racpkt message, vector"
vector 112  CAIN.eNodeB.nic.mac  racDistanceSignal:vector  ETV
attr interpolationmode  none
attr title  "Rac distance to enb, vector"
vector 113  CAIN.eNodeB.nic.mac  racServedDevsSignal:vector  ETV
attr interpolationmode  none
attr title  "# of devices served on rac arriavall, vector"
vector 106  CAIN.eNodeB.nic.mac  DistanceSignal:vector  ETV
attr interpolationmode  none
attr title  "Distance to enb, vector"
vector 101  CAIN.eNodeB.nic.mac  CainHopMessage:vector  ETV
attr interpolationmode  none
attr title  "eNB received CAIN hop message, vector"
vector 98  CAIN.eNodeB.nic.mac  sentPacketToLowerLayer:vector(packetBytes)  ETV
attr interpolationmode  none
attr source  sentPacketToLowerLayer
vector 953  CAIN.ueD2DTx[23].nic.mac  DropedHopMessage:vector  ETV
attr interpolationmode  none
attr title  "Droped Hop CAIN message due to RB not available, vector"
vector 1517  CAIN.ueD2DTx[18].tcp  tcpRcvQueueBytes  ETV
vector 1504  CAIN.ueD2DTx[18].tcp  "advertised window"  ETV
vector 1503  CAIN.ueD2DTx[18].tcp  "receive window"  ETV
vector 1506  CAIN.ueD2DTx[18].tcp  "sent ack"  ETV
vector 781  CAIN.ueD2DTx[18].nic.pdcpRrc  receivedPacketFromUpperLayer:vector(packetBytes)  ETV
attr interpolationmode  none
attr source  receivedPacketFromUpperLayer
vector 784  CAIN.ueD2DTx[18].nic.pdcpRrc  sentPacketToLowerLayer:vector(packetBytes)  ETV
attr interpolationmode  none
attr source  sentPacketToLowerLayer
vector 785  CAIN.ueD2DTx[18].nic.mac  receivedPacketFromUpperLayer:vector(packetBytes)  ETV
attr interpolationmode  none
attr source  receivedPacketFromUpperLayer
vector 795  CAIN.ueD2DTx[18].nic.mac  CainHopMessageSent:vector  ETV
attr interpolationmode  none
attr title  "# of Sent CAIN hop message, vector"
vector 788  CAIN.ueD2DTx[18].nic.mac  sentPacketToLowerLayer:vector(packetBytes)  ETV
attr interpolationmode  none
attr source  sentPacketToLowerLayer
vector 1541  CAIN.ueD2DTx[6].tcp  tcpRcvQueueBytes  ETV
vector 1528  CAIN.ueD2DTx[6].tcp  "advertised window"  ETV
vector 1527  CAIN.ueD2DTx[6].tcp  "receive window"  ETV
vector 1530  CAIN.ueD2DTx[6].tcp  "sent ack"  ETV
vector 397  CAIN.ueD2DTx[6].nic.pdcpRrc  receivedPacketFromUpperLayer:vector(packetBytes)  ETV
attr interpolationmode  none
attr source  receivedPacketFromUpperLayer
vector 400  CAIN.ueD2DTx[6].nic.pdcpRrc  sentPacketToLowerLayer:vector(packetBytes)  ETV
attr interpolationmode  none
attr source  sentPacketToLowerLayer
vector 401  CAIN.ueD2DTx[6].nic.mac  receivedPacketFromUpperLayer:vector(packetBytes)  ETV
attr interpolationmode  none
attr source  receivedPacketFromUpperLayer
vector 411  CAIN.ueD2DTx[6].nic.mac  CainHopMessageSent:vector  ETV
attr interpolationmode  none
attr title  "# of Sent CAIN hop message, vector"
vector 404  CAIN.ueD2DTx[6].nic.mac  sentPacketToLowerLayer:vector(packetBytes)  ETV
attr interpolationmode  none
attr source  sentPacketToLowerLayer
vector 1565  CAIN.ueD2DTx[14].tcp  tcpRcvQueueBytes  ETV
vector 1552  CAIN.ueD2DTx[14].tcp  "advertised window"  ETV
vector 1551  CAIN.ueD2DTx[14].tcp  "receive window"  ETV
vector 1554  CAIN.ueD2DTx[14].tcp  "sent ack"  ETV
vector 653  CAIN.ueD2DTx[14].nic.pdcpRrc  receivedPacketFromUpperLayer:vector(packetBytes)  ETV
attr interpolationmode  none
attr source  receivedPacketFromUpperLayer
vector 656  CAIN.ueD2DTx[14].nic.pdcpRrc  sentPacketToLowerLayer:vector(packetBytes)  ETV
attr interpolationmode  none
attr source  sentPacketToLowerLayer
vector 657  CAIN.ueD2DTx[14].nic.mac  receivedPacketFromUpperLayer:vector(packetBytes)  ETV
attr interpolationmode  none
attr source  receivedPacketFromUpperLayer
vector 667  CAIN.ueD2DTx[14].nic.mac  CainHopMessageSent:vector  ETV
attr interpolationmode  none
attr title  "# of Sent CAIN hop message, vector"
vector 660  CAIN.ueD2DTx[14].nic.mac  sentPacketToLowerLayer:vector(packetBytes)  ETV
attr interpolationmode  none
attr source  sentPacketToLowerLayer
vector 1589  CAIN.ueD2DTx[12].tcp  tcpRcvQueueBytes  ETV
vector 1576  CAIN.ueD2DTx[12].tcp  "advertised window"  ETV
vector 1575  CAIN.ueD2DTx[12].tcp  "receive window"  ETV
vector 1578  CAIN.ueD2DTx[12].tcp  "sent ack"  ETV
vector 589  CAIN.ueD2DTx[12].nic.pdcpRrc  receivedPacketFromUpperLayer:vector(packetBytes)  ETV
attr interpolationmode  none
attr source  receivedPacketFromUpperLayer
vector 592  CAIN.ueD2DTx[12].nic.pdcpRrc  sentPacketToLowerLayer:vector(packetBytes)  ETV
attr interpolationmode  none
attr source  sentPacketToLowerLayer
vector 593  CAIN.ueD2DTx[12].nic.mac  receivedPacketFromUpperLayer:vector(packetBytes)  ETV
attr interpolationmode  none
attr source  receivedPacketFromUpperLayer
vector 603  CAIN.ueD2DTx[12].nic.mac  CainHopMessageSent:vector  ETV
attr interpolationmode  none
attr title  "# of Sent CAIN hop message, vector"
vector 596  CAIN.ueD2DTx[12].nic.mac  sentPacketToLowerLayer:vector(packetBytes)  ETV
attr interpolationmode  none
attr source  sentPacketToLowerLayer
vector 1613  CAIN.ueD2DTx[2].tcp  tcpRcvQueueBytes  ETV
vector 1600  CAIN.ueD2DTx[2].tcp  "advertised window"  ETV
vector 1599  CAIN.ueD2DTx[2].tcp  "receive window"  ETV
vector 1602  CAIN.ueD2DTx[2].tcp  "sent ack"  ETV
vector 269  CAIN.ueD2DTx[2].nic.pdcpRrc  receivedPacketFromUpperLayer:vector(packetBytes)  ETV
attr interpolationmode  none
attr source  receivedPacketFromUpperLayer
vector 272  CAIN.ueD2DTx[2].nic.pdcpRrc  sentPacketToLowerLayer:vector(packetBytes)  ETV
attr interpolationmode  none
attr source  sentPacketToLowerLayer
vector 273  CAIN.ueD2DTx[2].nic.mac  receivedPacketFromUpperLayer:vector(packetBytes)  ETV
attr interpolationmode  none
attr source  receivedPacketFromUpperLayer
vector 283  CAIN.ueD2DTx[2].nic.mac  CainHopMessageSent:vector  ETV
attr interpolationmode  none
attr title  "# of Sent CAIN hop message, vector"
vector 276  CAIN.ueD2DTx[2].nic.mac  sentPacketToLowerLayer:vector(packetBytes)  ETV
attr interpolationmode  none
attr source  sentPacketToLowerLayer
vector 1637  CAIN.ueD2DTx[15].tcp  tcpRcvQueueBytes  ETV
vector 1624  CAIN.ueD2DTx[15].tcp  "advertised window"  ETV
vector 1623  CAIN.ueD2DTx[15].tcp  "receive window"  ETV
vector 1626  CAIN.ueD2DTx[15].tcp  "sent ack"  ETV
vector 685  CAIN.ueD2DTx[15].nic.pdcpRrc  receivedPacketFromUpperLayer:vector(packetBytes)  ETV
attr interpolationmode  none
attr source  receivedPacketFromUpperLayer
vector 688  CAIN.ueD2DTx[15].nic.pdcpRrc  sentPacketToLowerLayer:vector(packetBytes)  ETV
attr interpolationmode  none
attr source  sentPacketToLowerLayer
vector 689  CAIN.ueD2DTx[15].nic.mac  receivedPacketFromUpperLayer:vector(packetBytes)  ETV
attr interpolationmode  none
attr source  receivedPacketFromUpperLayer
vector 699  CAIN.ueD2DTx[15].nic.mac  CainHopMessageSent:vector  ETV
attr interpolationmode  none
attr title  "# of Sent CAIN hop message, vector"
vector 594  CAIN.ueD2DTx[12].nic.mac  receivedPacketFromLowerLayer:vector(packetBytes)  ETV
attr interpolationmode  none
attr source  receivedPacketFromLowerLayer
vector 1661  CAIN.ueD2DTx[3].tcp  tcpRcvQueueBytes  ETV
vector 1648  CAIN.ueD2DTx[3].tcp  "advertised window"  ETV
vector 1647  CAIN.ueD2DTx[3].tcp  "receive window"  ETV
vector 1650  CAIN.ueD2DTx[3].tcp  "sent ack"  ETV
vector 301  CAIN.ueD2DTx[3].nic.pdcpRrc  receivedPacketFromUpperLayer:vector(packetBytes)  ETV
attr interpolationmode  none
attr source  receivedPacketFromUpperLayer
vector 304  CAIN.ueD2DTx[3].nic.pdcpRrc  sentPacketToLowerLayer:vector(packetBytes)  ETV
attr interpolationmode  none
attr source  sentPacketToLowerLayer
vector 305  CAIN.ueD2DTx[3].nic.mac  receivedPacketFromUpperLayer:vector(packetBytes)  ETV
attr interpolationmode  none
attr source  receivedPacketFromUpperLayer
vector 315  CAIN.ueD2DTx[3].nic.mac  CainHopMessageSent:vector  ETV
attr interpolationmode  none
attr title  "# of Sent CAIN hop message, vector"
vector 308  CAIN.ueD2DTx[3].nic.mac  sentPacketToLowerLayer:vector(packetBytes)  ETV
attr interpolationmode  none
attr source  sentPacketToLowerLayer
vector 1685  CAIN.ueD2DTx[8].tcp  tcpRcvQueueBytes  ETV
vector 1672  CAIN.ueD2DTx[8].tcp  "advertised window"  ETV
vector 1671  CAIN.ueD2DTx[8].tcp  "receive window"  ETV
vector 1674  CAIN.ueD2DTx[8].tcp  "sent ack"  ETV
vector 461  CAIN.ueD2DTx[8].nic.pdcpRrc  receivedPacketFromUpperLayer:vector(packetBytes)  ETV
attr interpolationmode  none
attr source  receivedPacketFromUpperLayer
vector 464  CAIN.ueD2DTx[8].nic.pdcpRrc  sentPacketToLowerLayer:vector(packetBytes)  ETV
attr interpolationmode  none
attr source  sentPacketToLowerLayer
vector 465  CAIN.ueD2DTx[8].nic.mac  receivedPacketFromUpperLayer:vector(packetBytes)  ETV
attr interpolationmode  none
attr source  receivedPacketFromUpperLayer
vector 475  CAIN.ueD2DTx[8].nic.mac  CainHopMessageSent:vector  ETV
attr interpolationmode  none
attr title  "# of Sent CAIN hop message, vector"
vector 468  CAIN.ueD2DTx[8].nic.mac  sentPacketToLowerLayer:vector(packetBytes)  ETV
attr interpolationmode  none
attr source  sentPacketToLowerLayer
vector 1709  CAIN.ueD2DTx[23].tcp  tcpRcvQueueBytes  ETV
vector 1696  CAIN.ueD2DTx[23].tcp  "advertised window"  ETV
vector 1695  CAIN.ueD2DTx[23].tcp  "receive window"  ETV
vector 1698  CAIN.ueD2DTx[23].tcp  "sent ack"  ETV
vector 941  CAIN.ueD2DTx[23].nic.pdcpRrc  receivedPacketFromUpperLayer:vector(packetBytes)  ETV
attr interpolationmode  none
attr source  receivedPacketFromUpperLayer
vector 944  CAIN.ueD2DTx[23].nic.pdcpRrc  sentPacketToLowerLayer:vector(packetBytes)  ETV
attr interpolationmode  none
attr source  sentPacketToLowerLayer
vector 945  CAIN.ueD2DTx[23].nic.mac  receivedPacketFromUpperLayer:vector(packetBytes)  ETV
attr interpolationmode  none
attr source  receivedPacketFromUpperLayer
vector 1733  CAIN.ueD2DTx[11].tcp  tcpRcvQueueBytes  ETV
vector 1720  CAIN.ueD2DTx[11].tcp  "advertised window"  ETV
vector 1719  CAIN.ueD2DTx[11].tcp  "receive window"  ETV
vector 1722  CAIN.ueD2DTx[11].tcp  "sent ack"  ETV
vector 557  CAIN.ueD2DTx[11].nic.pdcpRrc  receivedPacketFromUpperLayer:vector(packetBytes)  ETV
attr interpolationmode  none
attr source  receivedPacketFromUpperLayer
vector 560  CAIN.ueD2DTx[11].nic.pdcpRrc  sentPacketToLowerLayer:vector(packetBytes)  ETV
attr interpolationmode  none
attr source  sentPacketToLowerLayer
vector 561  CAIN.ueD2DTx[11].nic.mac  receivedPacketFromUpperLayer:vector(packetBytes)  ETV
attr interpolationmode  none
attr source  receivedPacketFromUpperLayer
vector 571  CAIN.ueD2DTx[11].nic.mac  CainHopMessageSent:vector  ETV
attr interpolationmode  none
attr title  "# of Sent CAIN hop message, vector"
vector 564  CAIN.ueD2DTx[11].nic.mac  sentPacketToLowerLayer:vector(packetBytes)  ETV
attr interpolationmode  none
attr source  sentPacketToLowerLayer
vector 947  CAIN.ueD2DTx[23].nic.mac  sentPacketToUpperLayer:vector(packetBytes)  ETV
attr interpolationmode  none
attr source  sentPacketToUpperLayer
vector 109  CAIN.eNodeB.nic.mac  ServedHopDevs:vector  ETV
attr interpolationmode  none
attr title  "# of devices served on hop forwarding, vector"
vector 1757  CAIN.ueD2DTx[7].tcp  tcpRcvQueueBytes  ETV
vector 1744  CAIN.ueD2DTx[7].tcp  "advertised window"  ETV
vector 1743  CAIN.ueD2DTx[7].tcp  "receive window"  ETV
vector 1746  CAIN.ueD2DTx[7].tcp  "sent ack"  ETV
vector 429  CAIN.ueD2DTx[7].nic.pdcpRrc  receivedPacketFromUpperLayer:vector(packetBytes)  ETV
attr interpolationmode  none
attr source  receivedPacketFromUpperLayer
vector 432  CAIN.ueD2DTx[7].nic.pdcpRrc  sentPacketToLowerLayer:vector(packetBytes)  ETV
attr interpolationmode  none
attr source  sentPacketToLowerLayer
vector 433  CAIN.ueD2DTx[7].nic.mac  receivedPacketFromUpperLayer:vector(packetBytes)  ETV
attr interpolationmode  none
attr source  receivedPacketFromUpperLayer
vector 443  CAIN.ueD2DTx[7].nic.mac  CainHopMessageSent:vector  ETV
attr interpolationmode  none
attr title  "# of Sent CAIN hop message, vector"
vector 436  CAIN.ueD2DTx[7].nic.mac  sentPacketToLowerLayer:vector(packetBytes)  ETV
attr interpolationmode  none
attr source  sentPacketToLowerLayer
vector 1461  CAIN.eNodeB1.sctp  "SendQueue of Association 5"  ETV
vector 1225  CAIN.eNodeB1.sctp  "TSN Sent 5:10.0.5.1"  ETV
vector 1232  CAIN.eNodeB1.sctp  "Outstanding Bytes 5:10.0.5.1"  ETV
vector 1030  CAIN.eNodeB1.sctp  "Outstanding Bytes 4:Total"  ETV
vector 1231  CAIN.eNodeB1.sctp  "Queued Sent Bytes 5:10.0.5.1"  ETV
vector 1029  CAIN.eNodeB1.sctp  "Queued Sent Bytes 4:Total"  ETV
vector 1074  CAIN.eNodeB.sctp  "TSN Received 1:10.0.5.2"  ETV
vector 1050  CAIN.eNodeB.sctp  "Queued Received Bytes 1:Total"  ETV
vector 1046  CAIN.eNodeB.sctp  "Advertised Receiver Window 1"  ETV
vector 1055  CAIN.eNodeB.sctp  "Number of Total Gap Blocks Stored 1"  ETV
vector 1056  CAIN.eNodeB.sctp  "Number of Revokable Gap Blocks Stored 1"  ETV
vector 1057  CAIN.eNodeB.sctp  "Number of Non-Revokable Gap Blocks Stored 1"  ETV
vector 1058  CAIN.eNodeB.sctp  "Number of Duplicate TSNs Stored 1"  ETV
vector 1062  CAIN.eNodeB.sctp  "Length of SACK Sent 1"  ETV
vector 1059  CAIN.eNodeB.sctp  "Number of Revokable Gap Blocks Sent 1"  ETV
vector 1060  CAIN.eNodeB.sctp  "Number of Non-Revokable Gap Blocks Sent 1"  ETV
vector 1061  CAIN.eNodeB.sctp  "Number of Duplicate TSNs Sent 1"  ETV
vector 1066  CAIN.eNodeB.sctp  "End to End Delay of Association 1"  ETV
vector 141  CAIN.eNodeB.x2App[0].client  rcvdPk:vector(packetBytes)  ETV
attr interpolationmode  none
attr source  rcvdPk
attr title  "packets received, vector(packetBytes)"
vector 1460  CAIN.eNodeB1.sctp  "Number of Gap Blocks in Last SACK of Association 5"  ETV
vector 1031  CAIN.eNodeB1.sctp  "Number of Revokable Gap Blocks in SACK 4"  ETV
vector 1032  CAIN.eNodeB1.sctp  "Number of Non-Revokable Gap Blocks in SACK 4"  ETV
vector 1242  CAIN.eNodeB1.sctp  "TSN Acked CumAck 5:10.0.5.1"  ETV
vector 1208  CAIN.eNodeB1.sctp  "Number of Gap Acked Chunks in Last SACK 5:10.0.2.2"  ETV
vector 1209  CAIN.eNodeB1.sctp  "Number of Non-Revokable Gap Acked Chunks in Last SACK 5:10.0.2.2"  ETV
vector 1210  CAIN.eNodeB1.sctp  "Number of Gap Missed Chunks in Last SACK 5:10.0.2.2"  ETV
vector 1181  CAIN.eNodeB1.sctp  "Number of Gap Acked Chunks in Last SACK 5:10.0.4.1"  ETV
vector 1182  CAIN.eNodeB1.sctp  "Number of Non-Revokable Gap Acked Chunks in Last SACK 5:10.0.4.1"  ETV
vector 1183  CAIN.eNodeB1.sctp  "Number of Gap Missed Chunks in Last SACK 5:10.0.4.1"  ETV
vector 1235  CAIN.eNodeB1.sctp  "Number of Gap Acked Chunks in Last SACK 5:10.0.5.1"  ETV
vector 1236  CAIN.eNodeB1.sctp  "Number of Non-Revokable Gap Acked Chunks in Last SACK 5:10.0.5.1"  ETV
vector 1237  CAIN.eNodeB1.sctp  "Number of Gap Missed Chunks in Last SACK 5:10.0.5.1"  ETV
vector 1041  CAIN.eNodeB1.sctp  "Arwnd in Last SACK 4"  ETV
vector 1244  CAIN.eNodeB1.sctp  "TSN PseudoCumAck 5:10.0.5.1"  ETV
vector 1245  CAIN.eNodeB1.sctp  "TSN RTXPseudoCumAck 5:10.0.5.1"  ETV
vector 1238  CAIN.eNodeB1.sctp  "Partial Bytes Acked 5:10.0.5.1"  ETV
vector 1781  CAIN.ueD2DTx[24].tcp  tcpRcvQueueBytes  ETV
vector 1768  CAIN.ueD2DTx[24].tcp  "advertised window"  ETV
vector 1767  CAIN.ueD2DTx[24].tcp  "receive window"  ETV
vector 1770  CAIN.ueD2DTx[24].tcp  "sent ack"  ETV
vector 973  CAIN.ueD2DTx[24].nic.pdcpRrc  receivedPacketFromUpperLayer:vector(packetBytes)  ETV
attr interpolationmode  none
attr source  receivedPacketFromUpperLayer
vector 976  CAIN.ueD2DTx[24].nic.pdcpRrc  sentPacketToLowerLayer:vector(packetBytes)  ETV
attr interpolationmode  none
attr source  sentPacketToLowerLayer
vector 977  CAIN.ueD2DTx[24].nic.mac  receivedPacketFromUpperLayer:vector(packetBytes)  ETV
attr interpolationmode  none
attr source  receivedPacketFromUpperLayer
vector 1805  CAIN.ueD2DTx[4].tcp  tcpRcvQueueBytes  ETV
vector 1792  CAIN.ueD2DTx[4].tcp  "advertised window"  ETV
vector 1791  CAIN.ueD2DTx[4].tcp  "receive window"  ETV
vector 1794  CAIN.ueD2DTx[4].tcp  "sent ack"  ETV
vector 333  CAIN.ueD2DTx[4].nic.pdcpRrc  receivedPacketFromUpperLayer:vector(packetBytes)  ETV
attr interpolationmode  none
attr source  receivedPacketFromUpperLayer
vector 336  CAIN.ueD2DTx[4].nic.pdcpRrc  sentPacketToLowerLayer:vector(packetBytes)  ETV
attr interpolationmode  none
attr source  sentPacketToLowerLayer
vector 337  CAIN.ueD2DTx[4].nic.mac  receivedPacketFromUpperLayer:vector(packetBytes)  ETV
attr interpolationmode  none
attr source  receivedPacketFromUpperLayer
vector 347  CAIN.ueD2DTx[4].nic.mac  CainHopMessageSent:vector  ETV
attr interpolationmode  none
attr title  "# of Sent CAIN hop message, vector"
vector 340  CAIN.ueD2DTx[4].nic.mac  sentPacketToLowerLayer:vector(packetBytes)  ETV
attr interpolationmode  none
attr source  sentPacketToLowerLayer
vector 986  CAIN.ueD2DTx[24].nic.mac  CainMessageSent:vector  ETV
attr interpolationmode  none
attr title  "# of Sent CAIN message, vector"
vector 980  CAIN.ueD2DTx[24].nic.mac  sentPacketToLowerLayer:vector(packetBytes)  ETV
attr interpolationmode  none
attr source  sentPacketToLowerLayer
vector 498  CAIN.ueD2DTx[9].nic.mac  receivedPacketFromLowerLayer:vector(packetBytes)  ETV
attr interpolationmode  none
attr source  receivedPacketFromLowerLayer
vector 500  CAIN.ueD2DTx[9].nic.mac  sentPacketToLowerLayer:vector(packetBytes)  ETV
attr interpolationmode  none
attr source  sentPacketToLowerLayer
vector 100  CAIN.eNodeB.nic.mac  CainMessage:vector  ETV
attr interpolationmode  none
attr title  "eNB received CAIN message, vector"
vector 504  CAIN.ueD2DTx[9].nic.mac  DropedCainMessage:vector  ETV
attr interpolationmode  none
attr title  "Droped CAIN message due to RB not available, vector"
vector 154  CAIN.eNodeB1.nic.mac  receivedPacketFromLowerLayer:vector(packetBytes)  ETV
attr interpolationmode  none
attr source  receivedPacketFromLowerLayer
vector 1829  CAIN.ueD2DTx[16].tcp  tcpRcvQueueBytes  ETV
vector 1816  CAIN.ueD2DTx[16].tcp  "advertised window"  ETV
vector 1815  CAIN.ueD2DTx[16].tcp  "receive window"  ETV
vector 1818  CAIN.ueD2DTx[16].tcp  "sent ack"  ETV
vector 717  CAIN.ueD2DTx[16].nic.pdcpRrc  receivedPacketFromUpperLayer:vector(packetBytes)  ETV
attr interpolationmode  none
attr source  receivedPacketFromUpperLayer
vector 720  CAIN.ueD2DTx[16].nic.pdcpRrc  sentPacketToLowerLayer:vector(packetBytes)  ETV
attr interpolationmode  none
attr source  sentPacketToLowerLayer
vector 721  CAIN.ueD2DTx[16].nic.mac  receivedPacketFromUpperLayer:vector(packetBytes)  ETV
attr interpolationmode  none
attr source  receivedPacketFromUpperLayer
vector 730  CAIN.ueD2DTx[16].nic.mac  CainMessageSent:vector  ETV
attr interpolationmode  none
attr title  "# of Sent CAIN message, vector"
vector 724  CAIN.ueD2DTx[16].nic.mac  sentPacketToLowerLayer:vector(packetBytes)  ETV
attr interpolationmode  none
attr source  sentPacketToLowerLayer
vector 1853  CAIN.ueD2DTx[1].tcp  tcpRcvQueueBytes  ETV
vector 1840  CAIN.ueD2DTx[1].tcp  "advertised window"  ETV
vector 1839  CAIN.ueD2DTx[1].tcp  "receive window"  ETV
vector 1842  CAIN.ueD2DTx[1].tcp  "sent ack"  ETV
vector 237  CAIN.ueD2DTx[1].nic.pdcpRrc  receivedPacketFromUpperLayer:vector(packetBytes)  ETV
attr interpolationmode  none
attr source  receivedPacketFromUpperLayer
vector 240  CAIN.ueD2DTx[1].nic.pdcpRrc  sentPacketToLowerLayer:vector(packetBytes)  ETV
attr interpolationmode  none
attr source  sentPacketToLowerLayer
vector 241  CAIN.ueD2DTx[1].nic.mac  receivedPacketFromUpperLayer:vector(packetBytes)  ETV
attr interpolationmode  none
attr source  receivedPacketFromUpperLayer
vector 250  CAIN.ueD2DTx[1].nic.mac  CainMessageSent:vector  ETV
attr interpolationmode  none
attr title  "# of Sent CAIN message, vector"
vector 244  CAIN.ueD2DTx[1].nic.mac  sentPacketToLowerLayer:vector(packetBytes)  ETV
attr interpolationmode  none
attr source  sentPacketToLowerLayer
vector 306  CAIN.ueD2DTx[3].nic.mac  receivedPacketFromLowerLayer:vector(packetBytes)  ETV
attr interpolationmode  none
attr source  receivedPacketFromLowerLayer
vector 1877  CAIN.ueD2DTx[20].tcp  tcpRcvQueueBytes  ETV
vector 1864  CAIN.ueD2DTx[20].tcp  "advertised window"  ETV
vector 1863  CAIN.ueD2DTx[20].tcp  "receive window"  ETV
vector 1866  CAIN.ueD2DTx[20].tcp  "sent ack"  ETV
vector 845  CAIN.ueD2DTx[20].nic.pdcpRrc  receivedPacketFromUpperLayer:vector(packetBytes)  ETV
attr interpolationmode  none
attr source  receivedPacketFromUpperLayer
vector 848  CAIN.ueD2DTx[20].nic.pdcpRrc  sentPacketToLowerLayer:vector(packetBytes)  ETV
attr interpolationmode  none
attr source  sentPacketToLowerLayer
vector 849  CAIN.ueD2DTx[20].nic.mac  receivedPacketFromUpperLayer:vector(packetBytes)  ETV
attr interpolationmode  none
attr source  receivedPacketFromUpperLayer
vector 859  CAIN.ueD2DTx[20].nic.mac  CainHopMessageSent:vector  ETV
attr interpolationmode  none
attr title  "# of Sent CAIN hop message, vector"
vector 852  CAIN.ueD2DTx[20].nic.mac  sentPacketToLowerLayer:vector(packetBytes)  ETV
attr interpolationmode  none
attr source  sentPacketToLowerLayer
vector 1901  CAIN.ueD2DTx[21].tcp  tcpRcvQueueBytes  ETV
vector 1888  CAIN.ueD2DTx[21].tcp  "advertised window"  ETV
vector 1887  CAIN.ueD2DTx[21].tcp  "receive window"  ETV
vector 1890  CAIN.ueD2DTx[21].tcp  "sent ack"  ETV
vector 877  CAIN.ueD2DTx[21].nic.pdcpRrc  receivedPacketFromUpperLayer:vector(packetBytes)  ETV
attr interpolationmode  none
attr source  receivedPacketFromUpperLayer
vector 880  CAIN.ueD2DTx[21].nic.pdcpRrc  sentPacketToLowerLayer:vector(packetBytes)  ETV
attr interpolationmode  none
attr source  sentPacketToLowerLayer
vector 881  CAIN.ueD2DTx[21].nic.mac  receivedPacketFromUpperLayer:vector(packetBytes)  ETV
attr interpolationmode  none
attr source  receivedPacketFromUpperLayer
vector 891  CAIN.ueD2DTx[21].nic.mac  CainHopMessageSent:vector  ETV
attr interpolationmode  none
attr title  "# of Sent CAIN hop message, vector"
vector 884  CAIN.ueD2DTx[21].nic.mac  sentPacketToLowerLayer:vector(packetBytes)  ETV
attr interpolationmode  none
attr source  sentPacketToLowerLayer
vector 1925  CAIN.ueD2DTx[9].tcp  tcpRcvQueueBytes  ETV
vector 1912  CAIN.ueD2DTx[9].tcp  "advertised window"  ETV
vector 1911  CAIN.ueD2DTx[9].tcp  "receive window"  ETV
vector 1914  CAIN.ueD2DTx[9].tcp  "sent ack"  ETV
vector 493  CAIN.ueD2DTx[9].nic.pdcpRrc  receivedPacketFromUpperLayer:vector(packetBytes)  ETV
attr interpolationmode  none
attr source  receivedPacketFromUpperLayer
vector 496  CAIN.ueD2DTx[9].nic.pdcpRrc  sentPacketToLowerLayer:vector(packetBytes)  ETV
attr interpolationmode  none
attr source  sentPacketToLowerLayer
vector 497  CAIN.ueD2DTx[9].nic.mac  receivedPacketFromUpperLayer:vector(packetBytes)  ETV
attr interpolationmode  none
attr source  receivedPacketFromUpperLayer
vector 1949  CAIN.ueD2DTx[10].tcp  tcpRcvQueueBytes  ETV
vector 1936  CAIN.ueD2DTx[10].tcp  "advertised window"  ETV
vector 1935  CAIN.ueD2DTx[10].tcp  "receive window"  ETV
vector 1938  CAIN.ueD2DTx[10].tcp  "sent ack"  ETV
vector 525  CAIN.ueD2DTx[10].nic.pdcpRrc  receivedPacketFromUpperLayer:vector(packetBytes)  ETV
attr interpolationmode  none
attr source  receivedPacketFromUpperLayer
vector 528  CAIN.ueD2DTx[10].nic.pdcpRrc  sentPacketToLowerLayer:vector(packetBytes)  ETV
attr interpolationmode  none
attr source  sentPacketToLowerLayer
vector 529  CAIN.ueD2DTx[10].nic.mac  receivedPacketFromUpperLayer:vector(packetBytes)  ETV
attr interpolationmode  none
attr source  receivedPacketFromUpperLayer
vector 532  CAIN.ueD2DTx[10].nic.mac  sentPacketToLowerLayer:vector(packetBytes)  ETV
attr interpolationmode  none
attr source  sentPacketToLowerLayer
vector 499  CAIN.ueD2DTx[9].nic.mac  sentPacketToUpperLayer:vector(packetBytes)  ETV
attr interpolationmode  none
attr source  sentPacketToUpperLayer
vector 169  CAIN.eNodeB1.nic.mac  racpkt:vector  ETV
attr interpolationmode  none
attr title  "eNB received racpkt message, vector"
vector 170  CAIN.eNodeB1.nic.mac  racDistanceSignal:vector  ETV
attr interpolationmode  none
attr title  "Rac distance to enb, vector"
vector 171  CAIN.eNodeB1.nic.mac  racServedDevsSignal:vector  ETV
attr interpolationmode  none
attr title  "# of devices served on rac arriavall, vector"
vector 156  CAIN.eNodeB1.nic.mac  sentPacketToLowerLayer:vector(packetBytes)  ETV
attr interpolationmode  none
attr source  sentPacketToLowerLayer
vector 530  CAIN.ueD2DTx[10].nic.mac  receivedPacketFromLowerLayer:vector(packetBytes)  ETV
attr interpolationmode  none
attr source  receivedPacketFromLowerLayer
vector 108  CAIN.eNodeB.nic.mac  ServedDevs:vector  ETV
attr interpolationmode  none
attr title  "# of devices served on cain forwarding, vector"
vector 1973  CAIN.ueD2DTx[17].tcp  tcpRcvQueueBytes  ETV
vector 1960  CAIN.ueD2DTx[17].tcp  "advertised window"  ETV
vector 1959  CAIN.ueD2DTx[17].tcp  "receive window"  ETV
vector 1962  CAIN.ueD2DTx[17].tcp  "sent ack"  ETV
vector 749  CAIN.ueD2DTx[17].nic.pdcpRrc  receivedPacketFromUpperLayer:vector(packetBytes)  ETV
attr interpolationmode  none
attr source  receivedPacketFromUpperLayer
vector 752  CAIN.ueD2DTx[17].nic.pdcpRrc  sentPacketToLowerLayer:vector(packetBytes)  ETV
attr interpolationmode  none
attr source  sentPacketToLowerLayer
vector 753  CAIN.ueD2DTx[17].nic.mac  receivedPacketFromUpperLayer:vector(packetBytes)  ETV
attr interpolationmode  none
attr source  receivedPacketFromUpperLayer
vector 1997  CAIN.ueD2DTx[0].tcp  tcpRcvQueueBytes  ETV
vector 1984  CAIN.ueD2DTx[0].tcp  "advertised window"  ETV
vector 1983  CAIN.ueD2DTx[0].tcp  "receive window"  ETV
vector 1986  CAIN.ueD2DTx[0].tcp  "sent ack"  ETV
vector 205  CAIN.ueD2DTx[0].nic.pdcpRrc  receivedPacketFromUpperLayer:vector(packetBytes)  ETV
attr interpolationmode  none
attr source  receivedPacketFromUpperLayer
vector 208  CAIN.ueD2DTx[0].nic.pdcpRrc  sentPacketToLowerLayer:vector(packetBytes)  ETV
attr interpolationmode  none
attr source  sentPacketToLowerLayer
vector 209  CAIN.ueD2DTx[0].nic.mac  receivedPacketFromUpperLayer:vector(packetBytes)  ETV
attr interpolationmode  none
attr source  receivedPacketFromUpperLayer
vector 219  CAIN.ueD2DTx[0].nic.mac  CainHopMessageSent:vector  ETV
attr interpolationmode  none
attr title  "# of Sent CAIN hop message, vector"
vector 212  CAIN.ueD2DTx[0].nic.mac  sentPacketToLowerLayer:vector(packetBytes)  ETV
attr interpolationmode  none
attr source  sentPacketToLowerLayer
vector 763  CAIN.ueD2DTx[17].nic.mac  CainHopMessageSent:vector  ETV
attr interpolationmode  none
attr title  "# of Sent CAIN hop message, vector"
vector 756  CAIN.ueD2DTx[17].nic.mac  sentPacketToLowerLayer:vector(packetBytes)  ETV
attr interpolationmode  none
attr source  sentPacketToLowerLayer
vector 242  CAIN.ueD2DTx[1].nic.mac  receivedPacketFromLowerLayer:vector(packetBytes)  ETV
attr interpolationmode  none
attr source  receivedPacketFromLowerLayer
vector 274  CAIN.ueD2DTx[2].nic.mac  receivedPacketFromLowerLayer:vector(packetBytes)  ETV
attr interpolationmode  none
attr source  receivedPacketFromLowerLayer
vector 2021  CAIN.ueD2DTx[19].tcp  tcpRcvQueueBytes  ETV
vector 2008  CAIN.ueD2DTx[19].tcp  "advertised window"  ETV
vector 2007  CAIN.ueD2DTx[19].tcp  "receive window"  ETV
vector 2010  CAIN.ueD2DTx[19].tcp  "sent ack"  ETV
vector 813  CAIN.ueD2DTx[19].nic.pdcpRrc  receivedPacketFromUpperLayer:vector(packetBytes)  ETV
attr interpolationmode  none
attr source  receivedPacketFromUpperLayer
vector 816  CAIN.ueD2DTx[19].nic.pdcpRrc  sentPacketToLowerLayer:vector(packetBytes)  ETV
attr interpolationmode  none
attr source  sentPacketToLowerLayer
vector 817  CAIN.ueD2DTx[19].nic.mac  receivedPacketFromUpperLayer:vector(packetBytes)  ETV
attr interpolationmode  none
attr source  receivedPacketFromUpperLayer
vector 2045  CAIN.ueD2DTx[5].tcp  tcpRcvQueueBytes  ETV
vector 2032  CAIN.ueD2DTx[5].tcp  "advertised window"  ETV
vector 2031  CAIN.ueD2DTx[5].tcp  "receive window"  ETV
vector 2034  CAIN.ueD2DTx[5].tcp  "sent ack"  ETV
vector 365  CAIN.ueD2DTx[5].nic.pdcpRrc  receivedPacketFromUpperLayer:vector(packetBytes)  ETV
attr interpolationmode  none
attr source  receivedPacketFromUpperLayer
vector 368  CAIN.ueD2DTx[5].nic.pdcpRrc  sentPacketToLowerLayer:vector(packetBytes)  ETV
attr interpolationmode  none
attr source  sentPacketToLowerLayer
vector 369  CAIN.ueD2DTx[5].nic.mac  receivedPacketFromUpperLayer:vector(packetBytes)  ETV
attr interpolationmode  none
attr source  receivedPacketFromUpperLayer
vector 379  CAIN.ueD2DTx[5].nic.mac  CainHopMessageSent:vector  ETV
attr interpolationmode  none
attr title  "# of Sent CAIN hop message, vector"
vector 372  CAIN.ueD2DTx[5].nic.mac  sentPacketToLowerLayer:vector(packetBytes)  ETV
attr interpolationmode  none
attr source  sentPacketToLowerLayer
vector 827  CAIN.ueD2DTx[19].nic.mac  CainHopMessageSent:vector  ETV
attr interpolationmode  none
attr title  "# of Sent CAIN hop message, vector"
vector 820  CAIN.ueD2DTx[19].nic.mac  sentPacketToLowerLayer:vector(packetBytes)  ETV
attr interpolationmode  none
attr source  sentPacketToLowerLayer
vector 2069  CAIN.ueD2DTx[22].tcp  tcpRcvQueueBytes  ETV
vector 2056  CAIN.ueD2DTx[22].tcp  "advertised window"  ETV
vector 2055  CAIN.ueD2DTx[22].tcp  "receive window"  ETV
vector 2058  CAIN.ueD2DTx[22].tcp  "sent ack"  ETV
vector 909  CAIN.ueD2DTx[22].nic.pdcpRrc  receivedPacketFromUpperLayer:vector(packetBytes)  ETV
attr interpolationmode  none
attr source  receivedPacketFromUpperLayer
vector 912  CAIN.ueD2DTx[22].nic.pdcpRrc  sentPacketToLowerLayer:vector(packetBytes)  ETV
attr interpolationmode  none
attr source  sentPacketToLowerLayer
vector 913  CAIN.ueD2DTx[22].nic.mac  receivedPacketFromUpperLayer:vector(packetBytes)  ETV
attr interpolationmode  none
attr source  receivedPacketFromUpperLayer
vector 402  CAIN.ueD2DTx[6].nic.mac  receivedPacketFromLowerLayer:vector(packetBytes)  ETV
attr interpolationmode  none
attr source  receivedPacketFromLowerLayer
vector 403  CAIN.ueD2DTx[6].nic.mac  sentPacketToUpperLayer:vector(packetBytes)  ETV
attr interpolationmode  none
attr source  sentPacketToUpperLayer
vector 282  CAIN.ueD2DTx[2].nic.mac  CainMessageSent:vector  ETV
attr interpolationmode  none
attr title  "# of Sent CAIN message, vector"
vector 307  CAIN.ueD2DTx[3].nic.mac  sentPacketToUpperLayer:vector(packetBytes)  ETV
attr interpolationmode  none
attr source  sentPacketToUpperLayer
vector 434  CAIN.ueD2DTx[7].nic.mac  receivedPacketFromLowerLayer:vector(packetBytes)  ETV
attr interpolationmode  none
attr source  receivedPacketFromLowerLayer
vector 435  CAIN.ueD2DTx[7].nic.mac  sentPacketToUpperLayer:vector(packetBytes)  ETV
attr interpolationmode  none
attr source  sentPacketToUpperLayer
vector 531  CAIN.ueD2DTx[10].nic.mac  sentPacketToUpperLayer:vector(packetBytes)  ETV
attr interpolationmode  none
attr source  sentPacketToUpperLayer
vector 922  CAIN.ueD2DTx[22].nic.mac  CainMessageSent:vector  ETV
attr interpolationmode  none
attr title  "# of Sent CAIN message, vector"
vector 916  CAIN.ueD2DTx[22].nic.mac  sentPacketToLowerLayer:vector(packetBytes)  ETV
attr interpolationmode  none
attr source  sentPacketToLowerLayer
1268	54918 24 175 175 0.0000001228 0.0000001228 1 0 0 0 0
1379	54942 28 260 260 0.0000006304 0.0000006304 1 65535 65535 65535 4294836225
1380	54970 27 260 260 0.0000006304 0.0000006304 1 8940 8940 8940 79923600
1381	54997 29 260 260 0.0000006304 0.0000006304 1 0.3725 0.3725 0.3725 0.13875625
1377	55026 24 260 260 0.0000006304 0.0000006304 1 3 3 3 9
1384	55050 24 260 260 0.0000006304 0.0000006304 1 1 1 1 1
1396	55074 24 188 188 0.0000003096 0.0000003096 1 0 0 0 0
1352	55098 28 260 260 0.0000006304 0.0000006304 1 65535 65535 65535 4294836225
1353	55126 27 260 260 0.0000006304 0.0000006304 1 8940 8940 8940 79923600
1354	55153 29 260 260 0.0000006304 0.0000006304 1 0.3725 0.3725 0.3725 0.13875625
1350	55182 24 260 260 0.0000006304 0.0000006304 1 3 3 3 9
1357	55206 24 260 260 0.0000006304 0.0000006304 1 1 1 1 1
1369	55230 24 188 188 0.0000003096 0.0000003096 1 0 0 0 0
1070	55254 28 260 260 0.0000006304 0.0000006304 1 65535 65535 65535 4294836225
1071	55282 27 260 260 0.0000006304 0.0000006304 1 8940 8940 8940 79923600
1072	55309 29 260 260 0.0000006304 0.0000006304 1 0.3725 0.3725 0.3725 0.13875625
1068	55338 48 260 327 0.0000006304 0.0000008564 2 1 3 4 10
1069	55386 31 327 327 0.0000008564 0.0000008564 1 2.26e-07 2.26e-07 2.26e-07 5.1076e-14
1074	55417 3900 4166 19932 0.0570000972 0.2570025916 135 2000 2134 279045 576991035
1077	59317 46 232 246 0.000000552 0.000000596 2 1 2 3 5
1076	59363 46 232 246 0.000000552 0.000000596 2 1 2 3 5
1078	59409 48 327 333 0.0000008564 0.0000009004 2 1 2 3 5
1087	59457 13 156 156 0 0 1 0 0 0 0
1046	59470 89 4166 35293 0.0570000972 0.4570025916 3 65533 65535 196603 12884246539
1050	59559 3575 4166 35293 0.0570000972 0.4570025916 138 0 240 272 58392
1055	63134 77 4166 35293 0.0570000972 0.4570025916 3 0 0 0 0
1056	63211 77 4166 35293 0.0570000972 0.4570025916 3 0 0 0 0
1057	63288 77 4166 35293 0.0570000972 0.4570025916 3 0 0 0 0
1058	63365 77 4166 35293 0.0570000972 0.4570025916 3 0 0 0 0
1059	63442 77 4166 35293 0.0570000972 0.4570025916 3 0 0 0 0
1060	63519 77 4166 35293 0.0570000972 0.4570025916 3 0 0 0 0
1061	63596 77 4166 35293 0.0570000972 0.4570025916 3 0 0 0 0
1062	63673 80 4166 35293 0.0570000972 0.4570025916 3 16 16 48 768
1064	63753 28 188 188 0.0000003096 0.0000003096 1 65535 65535 65535 4294836225
1066	63781 4694 4169 20053 0.0570000972 0.2570025916 135 9.72e-08 2.0012e-06 0.000244514 4.818896792e-10
1067	68475 13 156 156 0 0 1 0 0 0 0
1298	68488 27 203 203 0.000000458 0.000000458 1 65535 65535 65535 4294836225
1299	68515 26 203 203 0.000000458 0.000000458 1 8940 8940 8940 79923600
1300	68541 28 203 203 0.000000458 0.000000458 1 0.3725 0.3725 0.3725 0.13875625
1296	68569 23 203 203 0.000000458 0.000000458 1 3 3 3 9
1303	68592 23 203 203 0.000000458 0.000000458 1 1 1 1 1
1311	68615 76 750 31602 0.0070001912 0.4070026856 3 0 0 0 0
1312	68691 76 750 31602 0.0070001912 0.4070026856 3 0 0 0 0
1313	68767 76 750 31602 0.0070001912 0.4070026856 3 0 0 0 0
1315	68843 24 175 175 0.0000001228 0.0000001228 1 0 0 0 0
1271	68867 27 203 203 0.000000458 0.000000458 1 65535 65535 65535 4294836225
1272	68894 26 203 203 0.000000458 0.000000458 1 8940 8940 8940 79923600
1273	68920 28 203 203 0.000000458 0.000000458 1 0.3725 0.3725 0.3725 0.13875625
1269	68948 23 203 203 0.000000458 0.000000458 1 3 3 3 9
1276	68971 23 203 203 0.000000458 0.000000458 1 1 1 1 1
1284	68994 76 750 31602 0.0070001912 0.4070026856 3 0 0 0 0
1285	69070 76 750 31602 0.0070001912 0.4070026856 3 0 0 0 0
1286	69146 76 750 31602 0.0070001912 0.4070026856 3 0 0 0 0
1288	69222 24 175 175 0.0000001228 0.0000001228 1 0 0 0 0
1325	69246 57 203 90563 0.000000458 1.2070005904 2 65535 65535 131070 8589672450
1326	69303 55 203 90563 0.000000458 1.2070005904 2 8940 8940 17880 159847200
1327	69358 58 203 90563 0.000000458 1.2070005904 2 0.3725 23.84 24.2125 568.48435625
1323	69416 123 203 31602 0.000000458 0.4070026856 5 1 3 7 13
1324	69539 138 280 31602 0.0000006744 0.4070026856 4 1.912e-07 0.2000020952 0.400002902 0.080000997764633
1328	69677 3878 688 15670 0.007 0.2070005904 135 2000 2134 279045 576991035
1332	73555 48 298 312 0.0000007624 0.0000008064 2 1 2 3 5
1331	73603 48 298 312 0.0000007624 0.0000008064 2 1 2 3 5
1333	73651 48 280 290 0.0000006744 0.0000007184 2 1 2 3 5
1334	73699 7372 688 31602 0.007 0.4070026856 270 0 240 29194 4615500
1335	81071 7372 688 31602 0.007 0.4070026856 270 0 240 29194 4615500
1338	88443 76 750 31602 0.0070001912 0.4070026856 3 0 0 0 0
1339	88519 76 750 31602 0.0070001912 0.4070026856 3 0 0 0 0
1340	88595 76 750 31602 0.0070001912 0.4070026856 3 0 0 0 0
1341	88671 76 750 31602 0.0070001912 0.4070026856 3 0 0 0 0
1342	88747 24 175 175 0.0000001228 0.0000001228 1 0 0 0 0
1345	88771 85 750 31602 0.0070001912 0.4070026856 3 2000 2134 6148 12610152
1347	88856 76 750 31602 0.0070001912 0.4070026856 3 0 0 0 0
1348	88932 76 750 31602 0.0070001912 0.4070026856 3 0 0 0 0
1464	89008 76 750 31602 0.0070001912 0.4070026856 3 0 0 0 0
1465	89084 6159 688 15670 0.007 0.2070005904 270 0 120 14597 1153875
1008	95243 7372 688 31602 0.007 0.4070026856 270 0 240 29194 4615500
1007	102615 7372 688 31602 0.007 0.4070026856 270 0 240 29194 4615500
1009	109987 76 750 31602 0.0070001912 0.4070026856 3 0 0 0 0
1010	110063 76 750 31602 0.0070001912 0.4070026856 3 0 0 0 0
1019	110139 88 750 31602 0.0070001912 0.4070026856 3 65533 65535 196603 12884246539
1020	110227 116 175 31602 0.0000001228 0.4070026856 4 65533 65535 262138 17179082764
1023	110343 13 148 148 0 0 1 0 0 0 0
1165	110356 24 174 174 0.0000001228 0.0000001228 1 0 0 0 0
1433	110380 28 261 261 0.0000006304 0.0000006304 1 65535 65535 65535 4294836225
1434	110408 27 261 261 0.0000006304 0.0000006304 1 8940 8940 8940 79923600
1435	110435 29 261 261 0.0000006304 0.0000006304 1 0.3725 0.3725 0.3725 0.13875625
1431	110464 24 261 261 0.0000006304 0.0000006304 1 3 3 3 9
1438	110488 24 261 261 0.0000006304 0.0000006304 1 1 1 1 1
1450	110512 24 189 189 0.0000003096 0.0000003096 1 0 0 0 0
1406	110536 28 261 261 0.0000006304 0.0000006304 1 65535 65535 65535 4294836225
1407	110564 27 261 261 0.0000006304 0.0000006304 1 8940 8940 8940 79923600
1408	110591 29 261 261 0.0000006304 0.0000006304 1 0.3725 0.3725 0.3725 0.13875625
1404	110620 24 261 261 0.0000006304 0.0000006304 1 3 3 3 9
1411	110644 24 261 261 0.0000006304 0.0000006304 1 1 1 1 1
1423	110668 24 189 189 0.0000003096 0.0000003096 1 0 0 0 0
1119	110692 28 261 261 0.0000006304 0.0000006304 1 65535 65535 65535 4294836225
1120	110720 27 261 261 0.0000006304 0.0000006304 1 8940 8940 8940 79923600
1121	110747 29 261 261 0.0000006304 0.0000006304 1 0.3725 0.3725 0.3725 0.13875625
1117	110776 48 261 326 0.0000006304 0.0000008564 2 1 3 4 10
1118	110824 31 326 326 0.0000008564 0.0000008564 1 2.26e-07 2.26e-07 2.26e-07 5.1076e-14
1123	110855 3885 738 15677 0.0070000972 0.2070025916 135 2000 2134 279045 576991035
1126	114740 46 233 247 0.000000552 0.000000596 2 1 2 3 5
1125	114786 46 233 247 0.000000552 0.000000596 2 1 2 3 5
1127	114832 48 326 332 0.0000008564 0.0000009004 2 1 2 3 5
1136	114880 13 157 157 0 0 1 0 0 0 0
1095	114893 88 738 31595 0.0070000972 0.4070025916 3 65533 65535 196603 12884246539
1099	114981 3559 738 31595 0.0070000972 0.4070025916 138 0 240 272 58392
1104	118540 76 738 31595 0.0070000972 0.4070025916 3 0 0 0 0
1105	118616 76 738 31595 0.0070000972 0.4070025916 3 0 0 0 0
1106	118692 76 738 31595 0.0070000972 0.4070025916 3 0 0 0 0
1107	118768 76 738 31595 0.0070000972 0.4070025916 3 0 0 0 0
1108	118844 76 738 31595 0.0070000972 0.4070025916 3 0 0 0 0
1109	118920 76 738 31595 0.0070000972 0.4070025916 3 0 0 0 0
1110	118996 76 738 31595 0.0070000972 0.4070025916 3 0 0 0 0
1111	119072 79 738 31595 0.0070000972 0.4070025916 3 16 16 48 768
1113	119151 28 189 189 0.0000003096 0.0000003096 1 65535 65535 65535 4294836225
1115	119179 4679 741 15798 0.0070000972 0.2070025916 135 9.72e-08 2.0012e-06 0.000244514 4.818896792e-10
1116	123858 13 157 157 0 0 1 0 0 0 0
1195	123871 27 202 202 0.000000458 0.000000458 1 65535 65535 65535 4294836225
1196	123898 26 202 202 0.000000458 0.000000458 1 8940 8940 8940 79923600
1197	123924 28 202 202 0.000000458 0.000000458 1 0.3725 0.3725 0.3725 0.13875625
1193	123952 23 202 202 0.000000458 0.000000458 1 3 3 3 9
1200	123975 23 202 202 0.000000458 0.000000458 1 1 1 1 1
1208	123998 77 4178 35300 0.0570001912 0.4570026856 3 0 0 0 0
1209	124075 77 4178 35300 0.0570001912 0.4570026856 3 0 0 0 0
1210	124152 77 4178 35300 0.0570001912 0.4570026856 3 0 0 0 0
1212	124229 24 174 174 0.0000001228 0.0000001228 1 0 0 0 0
1168	124253 27 202 202 0.000000458 0.000000458 1 65535 65535 65535 4294836225
1169	124280 26 202 202 0.000000458 0.000000458 1 8940 8940 8940 79923600
1170	124306 28 202 202 0.000000458 0.000000458 1 0.3725 0.3725 0.3725 0.13875625
1166	124334 23 202 202 0.000000458 0.000000458 1 3 3 3 9
1173	124357 23 202 202 0.000000458 0.000000458 1 1 1 1 1
1181	124380 77 4178 35300 0.0570001912 0.4570026856 3 0 0 0 0
1182	124457 77 4178 35300 0.0570001912 0.4570026856 3 0 0 0 0
1183	124534 77 4178 35300 0.0570001912 0.4570026856 3 0 0 0 0
1185	124611 24 174 174 0.0000001228 0.0000001228 1 0 0 0 0
1222	124635 57 202 94264 0.000000458 1.2570005904 2 65535 65535 131070 8589672450
1223	124692 55 202 94264 0.000000458 1.2570005904 2 8940 8940 17880 159847200
1224	124747 58 202 94264 0.000000458 1.2570005904 2 0.3725 23.84 24.2125 568.48435625
1220	124805 124 202 35300 0.000000458 0.4570026856 5 1 3 7 13
1221	124929 139 281 35300 0.0000006744 0.4570026856 4 1.912e-07 0.2000020952 0.400002902 0.080000997764633
1225	125068 3893 4081 19925 0.057 0.2570005904 135 2000 2134 279045 576991035
1229	128961 48 299 313 0.0000007624 0.0000008064 2 1 2 3 5
1228	129009 48 299 313 0.0000007624 0.0000008064 2 1 2 3 5
1230	129057 48 281 291 0.0000006744 0.0000007184 2 1 2 3 5
1231	129105 7388 4081 35300 0.057 0.4570026856 270 0 240 29194 4615500
1232	136493 7388 4081 35300 0.057 0.4570026856 270 0 240 29194 4615500
1235	143881 77 4178 35300 0.0570001912 0.4570026856 3 0 0 0 0
1236	143958 77 4178 35300 0.0570001912 0.4570026856 3 0 0 0 0
1237	144035 77 4178 35300 0.0570001912 0.4570026856 3 0 0 0 0
1238	144112 77 4178 35300 0.0570001912 0.4570026856 3 0 0 0 0
1239	144189 24 174 174 0.0000001228 0.0000001228 1 0 0 0 0
1242	144213 86 4178 35300 0.0570001912 0.4570026856 3 2000 2134 6148 12610152
1244	144299 77 4178 35300 0.0570001912 0.4570026856 3 0 0 0 0
1245	144376 77 4178 35300 0.0570001912 0.4570026856 3 0 0 0 0
1460	144453 77 4178 35300 0.0570001912 0.4570026856 3 0 0 0 0
1461	144530 6189 4081 19925 0.057 0.2570005904 270 0 120 14597 1153875
1030	150719 7388 4081 35300 0.057 0.4570026856 270 0 240 29194 4615500
1029	158107 7388 4081 35300 0.057 0.4570026856 270 0 240 29194 4615500
1031	165495 77 4178 35300 0.0570001912 0.4570026856 3 0 0 0 0
1032	165572 77 4178 35300 0.0570001912 0.4570026856 3 0 0 0 0
1041	165649 89 4178 35300 0.0570001912 0.4570026856 3 65533 65535 196603 12884246539
1042	165738 117 174 35300 0.0000001228 0.4570026856 4 65533 65535 262138 17179082764
1045	165855 13 153 153 0 0 1 0 0 0 0
8	165868 8 0 0 0 0 1 0 0 0 0
9	165876 8 0 0 0 0 1 0 0 0 0
24	165884 9 0 0 0 0 1 0 0 0 0
25	165893 9 0 0 0 0 1 0 0 0 0
35	165902 9 0 0 0 0 1 0 0 0 0
36	165911 9 0 0 0 0 1 0 0 0 0
56	165920 9 0 0 0 0 1 0 0 0 0
57	165929 9 0 0 0 0 1 0 0 0 0
67	165938 9 0 0 0 0 1 0 0 0 0
68	165947 9 0 0 0 0 1 0 0 0 0
78	165956 9 0 0 0 0 1 0 0 0 0
79	165965 9 0 0 0 0 1 0 0 0 0
96	165974 942021 418 889669 0.002 10 53311 0 0 0 0
98	1107995 375349 1501 889663 0.02 10 21316 0 0 0 0
100	1483344 41267 4439 889649 0.06 10 1989 1 1989 1979055 2624886615
101	1524611 335542 1501 889663 0.02 10 15351 1 15351 117834276 1205955258676
106	1860153 716280 1501 889669 0.02 10 34636 285 522 17122628 8661387076
108	2576433 37418 6593 889355 0.087 9.997 1983 3 5 8722 40018
109	2613851 303252 3650 889669 0.052 10 15313 10 19 290606 5517370
111	2917103 819950 1501 889669 0.02 10 36626 1 36626 670750251 16378156045501
112	3737053 757804 1501 889669 0.02 10 36626 104 230 4562803 647476907
113	4494857 684552 1501 889669 0.02 10 36626 0 0 0 0
120	5179409 10 0 0 0 0 1 0 0 0 0
121	5179419 10 0 0 0 0 1 0 0 0 0
128	5179429 421 164 35295 0 0.4570025916 18 36 2432 3724 6088720
130	5179850 438 164 35295 0 0.4570025916 18 0 8.8e-08 3.088e-07 1.946112e-14
131	5180288 280 0 283 0 0.0000007124 13 0 2 10 14
132	5180568 828 0 35297 0 0.4570026356 37 0 1 18 18
133	5181396 423 166 35296 0 0.4570025916 18 43 2439 3850 6141738
134	5181819 442 171 31600 0.0000001228 0.4070026856 18 43 2439 3850 6141738
137	5182261 423 166 35296 0 0.4570025916 18 36 2432 3724 6088720
138	5182684 442 171 31600 0.0000001228 0.4070026856 18 36 2432 3724 6088720
141	5183126 3360 4171 20292 0.0570000972 0.2570025916 135 2 2 270 540
154	5186486 512034 4555 889545 0.062 9.999 27419 0 0 0 0
156	5698520 96849 6278 889582 0.084 10 5126 0 0 0 0
169	5795369 55299 6278 889545 0.084 9.999 2564 1 2564 3288330 5621948190
170	5850668 53842 6278 889545 0.084 9.999 2564 471 624 1558052 950879274
171	5904510 48714 6278 889545 0.084 9.999 2564 0 0 0 0
178	5953224 10 0 0 0 0 1 0 0 0 0
179	5953234 10 0 0 0 0 1 0 0 0 0
186	5953244 422 165 31597 0 0.4070025916 18 36 2432 3724 6088720
188	5953666 439 165 31597 0 0.4070025916 18 0 8.8e-08 3.088e-07 1.946112e-14
189	5954105 280 0 282 0 0.0000007124 13 0 2 10 14
190	5954385 830 0 31599 0 0.4070026356 37 0 1 18 18
191	5955215 424 167 31598 0 0.4070025916 18 43 2439 3850 6141738
192	5955639 441 170 35298 0.0000001228 0.4570026856 18 43 2439 3850 6141738
195	5956080 424 167 31598 0 0.4070025916 18 36 2432 3724 6088720
196	5956504 441 170 35298 0.0000001228 0.4570026856 18 36 2432 3724 6088720
199	5956945 3345 743 16037 0.0070000972 0.2070025916 135 2 2 270 540
205	5960290 85 6662 799768 0.088784986169 9.088784986169 3 44 44 132 5808
208	5960375 85 6662 799768 0.088784986169 9.088784986169 3 45 45 135 6075
209	5960460 85 6665 799771 0.088784986169 9.088784986169 3 45 45 135 6075
212	5960545 26294 6668 889498 0.089 9.999 1384 0 0 0 0
219	5986839 29339 6668 889498 0.089 9.999 1384 1 1384 958420 884621660
231	6016178 163 0 8040 0 0.105 10 1 2 19 37
237	6016341 85 4784 797419 0.064770889489 9.064770889489 3 44 44 132 5808
240	6016426 85 4784 797419 0.064770889489 9.064770889489 3 45 45 135 6075
241	6016511 85 4787 797422 0.064770889489 9.064770889489 3 45 45 135 6075
242	6016596 25518 6780 889622 0.09 10 1384 0 0 0 0
244	6042114 51130 4791 889622 0.065 10 2773 0 0 0 0
250	6093244 28672 4791 889585 0.065 10 1389 1 1389 965355 894240515
263	6121916 163 0 8041 0 0.105 10 1 2 19 37
269	6122079 85 2224 794349 0.032649362497 9.032649362497 3 44 44 132 5808
272	6122164 85 2224 794349 0.032649362497 9.032649362497 3 45 45 135 6075
273	6122249 85 2227 794352 0.032649362497 9.032649362497 3 45 45 135 6075
274	6122334 130472 6786 889634 0.09 10 6949 0 0 0 0
276	6252806 157043 2232 889634 0.033 10 8348 0 0 0 0
282	6409849 29561 225186 889369 3.033 9.998 1394 1 1394 972315 903928845
283	6439410 85 2232 3661 0.033 0.053 5 1 5 15 55
295	6439495 163 0 8042 0 0.105 10 1 2 19 37
301	6439658 85 2447 794709 0.036651693161 9.036651693161 3 44 44 132 5808
304	6439743 85 2447 794709 0.036651693161 9.036651693161 3 45 45 135 6075
305	6439828 26533 2450 889193 0.036651693161 9.996 1395 0 45 135 6075
306	6466361 155876 4823 889637 0.065 10 8327 0 0 0 0
307	6622237 26448 225808 889189 3.041 9.996 1392 0 0 0 0
308	6648685 130257 2526 889637 0.037 10 6938 0 0 0 0
315	6778942 68 2526 3598 0.037 0.052 4 1 4 10 30
327	6779010 163 0 8043 0 0.105 10 1 2 19 37
333	6779173 85 4268 796755 0.057963030662 9.057963030662 3 44 44 132 5808
336	6779258 85 4268 796755 0.057963030662 9.057963030662 3 45 45 135 6075
337	6779343 85 4271 796758 0.057963030662 9.057963030662 3 45 45 135 6075
340	6779428 37520 4278 889372 0.058 9.998 1989 0 0 0 0
347	6816948 42380 4278 889372 0.058 9.998 1989 1 1989 1979055 2624886615
359	6859328 10 0 0 0 0 1 1 1 1 1
365	6859338 82 7309 800575 0.09658703896 9.09658703896 3 44 44 132 5808
368	6859420 82 7309 800575 0.09658703896 9.09658703896 3 45 45 135 6075
369	6859502 82 7312 800578 0.09658703896 9.09658703896 3 45 45 135 6075
372	6859584 26256 7346 889300 0.097 9.997 1382 0 0 0 0
379	6885840 29295 7346 889300 0.097 9.997 1382 1 1382 955653 880793515
391	6915135 163 0 8044 0 0.105 10 1 2 19 37
397	6915298 82 1840 793765 0.02660460389 9.02660460389 3 44 44 132 5808
400	6915380 82 1840 793765 0.02660460389 9.02660460389 3 45 45 135 6075
401	6915462 142 1843 794638 0.02660460389 9.036 6 16 47 231 9629
402	6915604 105045 7618 889646 0.099 10 5570 0 0 0 0
403	7020649 57 225005 794634 3.031 9.036 3 0 0 0 0
404	7020706 105092 1852 889646 0.027 10 5573 0 0 0 0
411	7125798 102 1852 3602 0.027 0.052 6 1 6 21 91
423	7125900 163 0 8045 0 0.105 10 1 2 19 37
429	7126063 85 3940 796526 0.055890854003 9.055890854003 3 44 44 132 5808
432	7126148 85 3940 796526 0.055890854003 9.055890854003 3 45 45 135 6075
433	7126233 3735 3943 889596 0.055890854003 10 201 0 45 198 6516
434	7129968 7524 227372 889537 3.058 9.999 396 0 0 0 0
435	7137492 3650 227494 889592 3.06 10 198 0 0 0 0
436	7141142 3779 3953 889197 0.056 9.996 199 0 0 0 0
443	7144921 17 3953 3953 0.056 0.056 1 1 1 1 1
455	7144938 163 0 8046 0 0.105 10 1 2 19 37
461	7145101 85 2747 795095 0.040940929686 9.040940929686 3 44 44 132 5808
464	7145186 85 2747 795095 0.040940929686 9.040940929686 3 45 45 135 6075
465	7145271 85 2750 795098 0.040940929686 9.040940929686 3 45 45 135 6075
468	7145356 26516 2761 889199 0.041 9.996 1396 0 0 0 0
475	7171872 29597 2761 889199 0.041 9.996 1396 1 1396 975106 907823686
487	7201469 163 0 8047 0 0.105 10 1 2 19 37
493	7201632 85 5878 798871 0.079275280847 9.079275280847 3 44 44 132 5808
496	7201717 85 5878 798871 0.079275280847 9.079275280847 3 45 45 135 6075
497	7201802 37448 5881 889512 0.079275280847 9.999 1983 0 45 170 6320
498	7239250 149821 4359 889551 0.059 9.999 7941 0 0 0 0
499	7389071 37363 6250 889508 0.084 9.999 1980 0 0 0 0
500	7426434 111278 4359 889598 0.059 10 5957 0 0 0 0
504	7537712 85 4516 6095 0.061 0.081 5 1 5 15 55
519	7537797 10 0 0 0 0 1 1 1 1 1
525	7537807 85 6159 799172 0.082257983647 9.082257983647 3 44 44 132 5808
528	7537892 85 6159 799172 0.082257983647 9.082257983647 3 45 45 135 6075
529	7537977 18461 6162 889310 0.082257983647 9.997 970 0 45 190 6808
530	7556438 89019 6360 889644 0.085 10 4714 0 0 0 0
531	7645457 18373 230005 889306 3.087 9.997 967 0 0 0 0
532	7663830 71189 6176 889539 0.083 9.999 3747 0 0 0 0
551	7735019 163 0 8048 0 0.105 10 1 2 19 37
557	7735182 82 3314 795829 0.04821039218 9.04821039218 3 44 44 132 5808
560	7735264 82 3314 795829 0.04821039218 9.04821039218 3 45 45 135 6075
561	7735346 82 3317 795832 0.04821039218 9.04821039218 3 45 45 135 6075
564	7735428 26463 3401 889514 0.049 9.999 1393 0 0 0 0
571	7761891 29535 3401 889514 0.049 9.999 1393 1 1393 970921 901985609
583	7791426 163 0 8049 0 0.105 10 1 2 19 37
589	7791589 85 1927 793915 0.028371024961 9.028371024961 3 44 44 132 5808
592	7791674 85 1927 793915 0.028371024961 9.028371024961 3 45 45 135 6075
593	7791759 85 1930 793918 0.028371024961 9.028371024961 3 45 45 135 6075
594	7791844 37587 2426 889229 0.036 9.996 1993 0 0 0 0
596	7829431 75209 1945 889516 0.029 9.999 3988 0 0 0 0
603	7904640 42500 1945 889516 0.029 9.999 1995 1 1995 1991010 2648706970
615	7947140 10 0 0 0 0 1 1 1 1 1
621	7947150 85 1248 792785 0.016038050947 9.016038050947 3 44 44 132 5808
624	7947235 85 1248 792785 0.016038050947 9.016038050947 3 45 45 135 6075
625	7947320 85 1251 792788 0.016038050947 9.016038050947 3 45 45 135 6075
628	7947405 26679 1267 889313 0.017 9.997 1405 0 0 0 0
635	7974084 29787 1267 889313 0.017 9.997 1405 1 1405 987715 925488955
647	8003871 163 0 8050 0 0.105 10 1 2 19 37
653	8004034 85 1880 793838 0.027878343419 9.027878343419 3 44 44 132 5808
656	8004119 85 1880 793838 0.027878343419 9.027878343419 3 45 45 135 6075
657	8004204 85 1883 793841 0.027878343419 9.027878343419 3 45 45 135 6075
660	8004289 26607 1900 889384 0.028 9.998 1401 0 0 0 0
667	8030896 29703 1900 889384 0.028 9.998 1401 1 1401 982101 917609701
679	8060599 163 0 8051 0 0.105 10 1 2 19 37
685	8060762 85 2319 794510 0.034516076937 9.034516076937 3 44 44 132 5808
688	8060847 85 2319 794510 0.034516076937 9.034516076937 3 45 45 135 6075
689	8060932 85 2322 794513 0.034516076937 9.034516076937 3 45 45 135 6075
690	8061017 251028 1337 889628 0.018 10 13360 0 0 0 0
692	8312045 287517 1337 889628 0.018 10 15354 0 0 0 0
699	8599562 41364 2340 889605 0.035 10 1994 1 1994 1989015 2644726945
711	8640926 10 0 0 0 0 1 1 1 1 1
717	8640936 85 4731 797329 0.063891002787 9.063891002787 3 44 44 132 5808
720	8641021 85 4731 797329 0.063891002787 9.063891002787 3 45 45 135 6075
721	8641106 85 4734 797332 0.063891002787 9.063891002787 3 45 45 135 6075
724	8641191 26389 4754 889521 0.064 9.999 1389 0 0 0 0
730	8667580 29449 4754 889521 0.064 9.999 1389 1 1389 965355 894240515
743	8697029 163 0 8052 0 0.105 10 1 2 19 37
749	8697192 85 6654 799761 0.088577514598 9.088577514598 3 44 44 132 5808
752	8697277 85 6654 799761 0.088577514598 9.088577514598 3 45 45 135 6075
753	8697362 85 6657 799764 0.088577514598 9.088577514598 3 45 45 135 6075
756	8697447 26294 6691 889523 0.089 9.999 1384 0 0 0 0
763	8723741 29339 6691 889523 0.089 9.999 1384 1 1384 958420 884621660
775	8753080 163 0 8053 0 0.105 10 1 2 19 37
781	8753243 85 1538 793275 0.021540784608 9.021540784608 3 44 44 132 5808
784	8753328 85 1538 793275 0.021540784608 9.021540784608 3 45 45 135 6075
785	8753413 85 1541 793278 0.021540784608 9.021540784608 3 45 45 135 6075
788	8753498 37639 1563 889319 0.022 9.997 1996 0 0 0 0
795	8791137 42520 1563 889319 0.022 9.997 1996 1 1996 1993006 2652690986
807	8833657 10 0 0 0 0 1 1 1 1 1
813	8833667 85 7301 800568 0.096236986774 9.096236986774 3 44 44 132 5808
816	8833752 85 7301 800568 0.096236986774 9.096236986774 3 45 45 135 6075
817	8833837 85 7304 800571 0.096236986774 9.096236986774 3 45 45 135 6075
820	8833922 37384 7362 889321 0.097 9.997 1981 0 0 0 0
827	8871306 42220 7362 889321 0.097 9.997 1981 1 1981 1963171 2593348891
839	8913526 10 0 0 0 0 1 1 1 1 1
845	8913536 85 5272 798089 0.071485376221 9.071485376221 3 44 44 132 5808
848	8913621 85 5272 798089 0.071485376221 9.071485376221 3 45 45 135 6075
849	8913706 85 5275 798092 0.071485376221 9.071485376221 3 45 45 135 6075
852	8913791 37469 5324 889323 0.072 9.997 1986 0 0 0 0
859	8951260 42320 5324 889323 0.072 9.997 1986 1 1986 1973091 2613030181
871	8993580 10 0 0 0 0 1 1 1 1 1
877	8993590 85 5677 798593 0.076776781168 9.076776781168 3 44 44 132 5808
880	8993675 85 5677 798593 0.076776781168 9.076776781168 3 45 45 135 6075
881	8993760 85 5680 798596 0.076776781168 9.076776781168 3 45 45 135 6075
884	8993845 37452 5706 889325 0.077 9.997 1985 0 0 0 0
891	9031297 42300 5706 889325 0.077 9.997 1985 1 1985 1971105 2609085985
903	9073597 10 0 0 0 0 1 1 1 1 1
909	9073607 82 7512 800811 0.09845927062 9.09845927062 3 44 44 132 5808
912	9073689 82 7512 800811 0.09845927062 9.09845927062 3 45 45 135 6075
913	9073771 82 7515 800814 0.09845927062 9.09845927062 3 45 45 135 6075
916	9073853 26239 231198 889529 3.099 9.999 1381 0 0 0 0
922	9100092 29275 231198 889529 3.099 9.999 1381 1 1381 954271 878883591
935	9129367 163 0 8054 0 0.105 10 1 2 19 37
941	9129530 85 3229 795729 0.047449069971 9.047449069971 3 44 44 132 5808
944	9129615 85 3229 795729 0.047449069971 9.047449069971 3 45 45 135 6075
945	9129700 201 3232 796709 0.047449069971 9.057 9 23 45 282 9690
946	9129901 577665 1439 889666 0.019 10 30711 0 0 0 0
947	9707566 110 3622 796705 0.052 9.057 6 0 0 0 0
948	9707676 576998 1439 889666 0.019 10 30672 0 0 0 0
953	10284674 584 1533 3533 0.021 0.05 33 1 33 561 12529
967	10285258 10 0 0 0 0 1 1 1 1 1
973	10285268 85 4260 796748 0.057842512242 9.057842512242 3 44 44 132 5808
976	10285353 85 4260 796748 0.057842512242 9.057842512242 3 45 45 135 6075
977	10285438 85 4263 796751 0.057842512242 9.057842512242 3 45 45 135 6075
980	10285523 37520 4299 889395 0.058 9.998 1989 0 0 0 0
986	10323043 42380 4299 889395 0.058 9.998 1989 1 1989 1979055 2624886615
999	10365423 10 0 0 0 0 1 1 1 1 1
1479	10365433 94 1245 792782 0.016038050947 9.016038050947 3 7504 7504 22512 168930048
1480	10365527 94 1245 792782 0.016038050947 9.016038050947 3 7504 7504 22512 168930048
1482	10365621 85 1245 792782 0.016038050947 9.016038050947 3 0 0 0 0
1493	10365706 85 1245 792782 0.016038050947 9.016038050947 3 0 0 0 0
1503	10365791 94 1535 793272 0.021540784608 9.021540784608 3 7504 7504 22512 168930048
1504	10365885 94 1535 793272 0.021540784608 9.021540784608 3 7504 7504 22512 168930048
1506	10365979 85 1535 793272 0.021540784608 9.021540784608 3 0 0 0 0
1517	10366064 85 1535 793272 0.021540784608 9.021540784608 3 0 0 0 0
1527	10366149 91 1837 793762 0.02660460389 9.02660460389 3 7504 7504 22512 168930048
1528	10366240 91 1837 793762 0.02660460389 9.02660460389 3 7504 7504 22512 168930048
1530	10366331 82 1837 793762 0.02660460389 9.02660460389 3 0 0 0 0
1541	10366413 82 1837 793762 0.02660460389 9.02660460389 3 0 0 0 0
1551	10366495 94 1877 793835 0.027878343419 9.027878343419 3 7504 7504 22512 168930048
1552	10366589 94 1877 793835 0.027878343419 9.027878343419 3 7504 7504 22512 168930048
1554	10366683 85 1877 793835 0.027878343419 9.027878343419 3 0 0 0 0
1565	10366768 85 1877 793835 0.027878343419 9.027878343419 3 0 0 0 0
1575	10366853 94 1924 793912 0.028371024961 9.028371024961 3 7504 7504 22512 168930048
1576	10366947 94 1924 793912 0.028371024961 9.028371024961 3 7504 7504 22512 168930048
1578	10367041 85 1924 793912 0.028371024961 9.028371024961 3 0 0 0 0
1589	10367126 85 1924 793912 0.028371024961 9.028371024961 3 0 0 0 0
1599	10367211 94 2221 794346 0.032649362497 9.032649362497 3 7504 7504 22512 168930048
1600	10367305 94 2221 794346 0.032649362497 9.032649362497 3 7504 7504 22512 168930048
1602	10367399 85 2221 794346 0.032649362497 9.032649362497 3 0 0 0 0
1613	10367484 85 2221 794346 0.032649362497 9.032649362497 3 0 0 0 0
1623	10367569 94 2316 794507 0.034516076937 9.034516076937 3 7504 7504 22512 168930048
1624	10367663 94 2316 794507 0.034516076937 9.034516076937 3 7504 7504 22512 168930048
1626	10367757 85 2316 794507 0.034516076937 9.034516076937 3 0 0 0 0
1637	10367842 85 2316 794507 0.034516076937 9.034516076937 3 0 0 0 0
1647	10367927 94 2444 794706 0.036651693161 9.036651693161 3 7504 7504 22512 168930048
1648	10368021 94 2444 794706 0.036651693161 9.036651693161 3 7504 7504 22512 168930048
1650	10368115 85 2444 794706 0.036651693161 9.036651693161 3 0 0 0 0
1661	10368200 85 2444 794706 0.036651693161 9.036651693161 3 0 0 0 0
1671	10368285 94 2744 795092 0.040940929686 9.040940929686 3 7504 7504 22512 168930048
1672	10368379 94 2744 795092 0.040940929686 9.040940929686 3 7504 7504 22512 168930048
1674	10368473 85 2744 795092 0.040940929686 9.040940929686 3 0 0 0 0
1685	10368558 85 2744 795092 0.040940929686 9.040940929686 3 0 0 0 0
1695	10368643 94 3226 795726 0.047449069971 9.047449069971 3 7504 7504 22512 168930048
1696	10368737 94 3226 795726 0.047449069971 9.047449069971 3 7504 7504 22512 168930048
1698	10368831 85 3226 795726 0.047449069971 9.047449069971 3 0 0 0 0
1709	10368916 85 3226 795726 0.047449069971 9.047449069971 3 0 0 0 0
1719	10369001 91 3311 795826 0.04821039218 9.04821039218 3 7504 7504 22512 168930048
1720	10369092 91 3311 795826 0.04821039218 9.04821039218 3 7504 7504 22512 168930048
1722	10369183 82 3311 795826 0.04821039218 9.04821039218 3 0 0 0 0
1733	10369265 82 3311 795826 0.04821039218 9.04821039218 3 0 0 0 0
1743	10369347 94 3937 796523 0.055890854003 9.055890854003 3 7504 7504 22512 168930048
1744	10369441 94 3937 796523 0.055890854003 9.055890854003 3 7504 7504 22512 168930048
1746	10369535 85 3937 796523 0.055890854003 9.055890854003 3 0 0 0 0
1757	10369620 85 3937 796523 0.055890854003 9.055890854003 3 0 0 0 0
1767	10369705 94 4257 796745 0.057842512242 9.057842512242 3 7504 7504 22512 168930048
1768	10369799 94 4257 796745 0.057842512242 9.057842512242 3 7504 7504 22512 168930048
1770	10369893 85 4257 796745 0.057842512242 9.057842512242 3 0 0 0 0
1781	10369978 85 4257 796745 0.057842512242 9.057842512242 3 0 0 0 0
1791	10370063 94 4265 796752 0.057963030662 9.057963030662 3 7504 7504 22512 168930048
1792	10370157 94 4265 796752 0.057963030662 9.057963030662 3 7504 7504 22512 168930048
1794	10370251 85 4265 796752 0.057963030662 9.057963030662 3 0 0 0 0
1805	10370336 85 4265 796752 0.057963030662 9.057963030662 3 0 0 0 0
1815	10370421 94 4728 797326 0.063891002787 9.063891002787 3 7504 7504 22512 168930048
1816	10370515 94 4728 797326 0.063891002787 9.063891002787 3 7504 7504 22512 168930048
1818	10370609 85 4728 797326 0.063891002787 9.063891002787 3 0 0 0 0
1829	10370694 85 4728 797326 0.063891002787 9.063891002787 3 0 0 0 0
1839	10370779 94 4781 797416 0.064770889489 9.064770889489 3 7504 7504 22512 168930048
1840	10370873 94 4781 797416 0.064770889489 9.064770889489 3 7504 7504 22512 168930048
1842	10370967 85 4781 797416 0.064770889489 9.064770889489 3 0 0 0 0
1853	10371052 85 4781 797416 0.064770889489 9.064770889489 3 0 0 0 0
1863	10371137 94 5269 798086 0.071485376221 9.071485376221 3 7504 7504 22512 168930048
1864	10371231 94 5269 798086 0.071485376221 9.071485376221 3 7504 7504 22512 168930048
1866	10371325 85 5269 798086 0.071485376221 9.071485376221 3 0 0 0 0
1877	10371410 85 5269 798086 0.071485376221 9.071485376221 3 0 0 0 0
1887	10371495 94 5674 798590 0.076776781168 9.076776781168 3 7504 7504 22512 168930048
1888	10371589 94 5674 798590 0.076776781168 9.076776781168 3 7504 7504 22512 168930048
1890	10371683 85 5674 798590 0.076776781168 9.076776781168 3 0 0 0 0
1901	10371768 85 5674 798590 0.076776781168 9.076776781168 3 0 0 0 0
1911	10371853 94 5875 798868 0.079275280847 9.079275280847 3 7504 7504 22512 168930048
1912	10371947 94 5875 798868 0.079275280847 9.079275280847 3 7504 7504 22512 168930048
1914	10372041 85 5875 798868 0.079275280847 9.079275280847 3 0 0 0 0
1925	10372126 85 5875 798868 0.079275280847 9.079275280847 3 0 0 0 0
1935	10372211 94 6156 799169 0.082257983647 9.082257983647 3 7504 7504 22512 168930048
1936	10372305 94 6156 799169 0.082257983647 9.082257983647 3 7504 7504 22512 168930048
1938	10372399 85 6156 799169 0.082257983647 9.082257983647 3 0 0 0 0
1949	10372484 85 6156 799169 0.082257983647 9.082257983647 3 0 0 0 0
1959	10372569 94 6651 799758 0.088577514598 9.088577514598 3 7504 7504 22512 168930048
1960	10372663 94 6651 799758 0.088577514598 9.088577514598 3 7504 7504 22512 168930048
1962	10372757 85 6651 799758 0.088577514598 9.088577514598 3 0 0 0 0
1973	10372842 85 6651 799758 0.088577514598 9.088577514598 3 0 0 0 0
1983	10372927 94 6659 799765 0.088784986169 9.088784986169 3 7504 7504 22512 168930048
1984	10373021 94 6659 799765 0.088784986169 9.088784986169 3 7504 7504 22512 168930048
1986	10373115 85 6659 799765 0.088784986169 9.088784986169 3 0 0 0 0
1997	10373200 85 6659 799765 0.088784986169 9.088784986169 3 0 0 0 0
2007	10373285 94 7298 800565 0.096236986774 9.096236986774 3 7504 7504 22512 168930048
2008	10373379 94 7298 800565 0.096236986774 9.096236986774 3 7504 7504 22512 168930048
2010	10373473 85 7298 800565 0.096236986774 9.096236986774 3 0 0 0 0
2021	10373558 85 7298 800565 0.096236986774 9.096236986774 3 0 0 0 0
2031	10373643 91 7306 800572 0.09658703896 9.09658703896 3 7504 7504 22512 168930048
2032	10373734 91 7306 800572 0.09658703896 9.09658703896 3 7504 7504 22512 168930048
2034	10373825 82 7306 800572 0.09658703896 9.09658703896 3 0 0 0 0
2045	10373907 82 7306 800572 0.09658703896 9.09658703896 3 0 0 0 0
2055	10373989 91 7509 800808 0.09845927062 9.09845927062 3 7504 7504 22512 168930048
2056	10374080 91 7509 800808 0.09845927062 9.09845927062 3 7504 7504 22512 168930048
2058	10374171 82 7509 800808 0.09845927062 9.09845927062 3 0 0 0 0
2069	10374253 82 7509 800808 0.09845927062 9.09845927062 3 0 0 0 0
