file 8553008 1588965415                                         
version 2
run CAIN-53-20200508-16:05:11-11701
attr configname CAIN
attr datetime 20200508-16:05:11
attr dist 200
attr experiment CAIN
attr extAllocType "\"RANDOM_ALLOC\""
attr inifile omnetpp.ini
attr iterationvars "$numUe=20, $pwr=-50, $dist=200, $mob=\"./movements/RPGM-0.5.movements\", $extAllocType=\"RANDOM_ALLOC\""
attr iterationvars2 "$numUe=20, $pwr=-50, $dist=200, $mob=\"./movements/RPGM-0.5.movements\", $extAllocType=\"RANDOM_ALLOC\", $repetition=3"
attr measurement "$numUe=20, $pwr=-50, $dist=200, $mob=\"./movements/RPGM-0.5.movements\", $extAllocType=\"RANDOM_ALLOC\""
attr mob "\"./movements/RPGM-0.5.movements\""
attr network lte.simulations.networks.CAIN
attr numUe 20
attr processid 11701
attr pwr -50
attr repetition 3
attr replication #3
attr resultdir results
attr runnumber 53
attr seedset 3
param **.**.amcMode "\"AUTO\""
param **.amcMode "\"D2D\""
param **.cainNetwork true
param **.channelControl.alpha 1.0
param **.channelControl.carrierFrequency 2100e+6Hz
param **.channelControl.pMax 10W
param **.d2dCqi 7
param **.deployer.numRbDl 50
param **.deployer.numRbUl 50
param **.distThresh ${dist=200}
param **.fbDelay 1
param **.feedbackComputation "xmldoc(\"config_channel.xml\")"
param **.mobility.constraintAreaMaxX 1000m
param **.mobility.constraintAreaMaxY 1000m
param **.mobility.constraintAreaMaxZ 0m
param **.mobility.constraintAreaMinX 0m
param **.mobility.constraintAreaMinY 0m
param **.mobility.constraintAreaMinZ 0m
param **.nic.phy.channelModel "xmldoc(\"config_channel.xml\")"
param **.numBands 50
param **.pwrThresh "${pwr= -50}"
param **.qtdThresh 3
param **.rbAllocationType "\"localized\""
param **.routingRecorder.enabled false
param **.tcpApp[*].tClose -1s
param **.ueD2DTx[*].mobility.changeAngleBy "normal(0deg, 30deg)"
param **.ueD2DTx[*].mobility.changeInterval "normal(5s, 0.1s)"
param **.ueD2DTx[*].mobility.nodeId -1
param **.ueD2DTx[*].mobility.speed "normal(2mps, 0.01mps)"
param **.ueD2DTx[*].mobility.traceFile "${mob=\"./movements/RWP-0.0.movements\",\"./movements/RWP-0.5.movements\",\"./movements/RPGM-0.0.movements\",\"./movements/RPGM-0.5.movements\",\"./movements/RWPRPGM-0.0.movements\",\"./movements/RWPRPGM-0.5.movements\"}"
param **.ueD2DTx[*].mobilityType "\"BonnMotionMobility\""
param **.usePreconfiguredTxParams false
param *.eNodeB*.numX2Apps 1
param *.eNodeB*.x2App[*].server.localPort "5000 + ancestorIndex(1)"
param *.eNodeB.d2dCapable false
param *.eNodeB.mobility.initFromDisplayString false
param *.eNodeB.mobility.initialX 300m
param *.eNodeB.mobility.initialY 300m
param *.eNodeB.nic.phy.enableD2DCqiReporting true
param *.eNodeB.txPower 19952.62315mw
param *.eNodeB.x2App[0].client.connectAddress "\"eNodeB1%x2ppp0\""
param *.eNodeB1.d2dCapable true
param *.eNodeB1.mobility.initFromDisplayString false
param *.eNodeB1.mobility.initialX 700m
param *.eNodeB1.mobility.initialY 300m
param *.eNodeB1.nic.phy.enableD2DCqiReporting true
param *.eNodeB1.txPower 19952.62315mw
param *.eNodeB1.x2App[0].client.connectAddress "\"eNodeB%x2ppp0\""
param *.extCell[*].bandAllocationType "${extAllocType=\"FULL_ALLOC\",\"RANDOM_ALLOC\",\"CONTIGUOUS_ALLOC\"}"
param *.extCell[*].bandUtilization 0.5
param *.extCell[*].txDirection "\"ANISOTROPIC\""
param *.extCell[*].txPower 20
param *.extCell[0].position_x 100m
param *.extCell[0].position_y 600m
param *.extCell[0].txAngle 315
param *.extCell[1].position_x 600m
param *.extCell[1].position_y 600m
param *.extCell[1].txAngle 225
param *.numExtCells 2
param *.numUeCell 0
param *.numUeD2DRx 1
param *.numUeD2DTx 1
param *.ue*.macCellId 1
param *.ue*.masterId 1
param *.ue*.mobility.initFromDisplayString false
param *.ue*[0].macCellId 1
param *.ue*[0].masterId 1
param *.ue*[0].mobility.initFromDisplayString false
param *.ueD2D*.numTcpApps 1
param *.ueD2D*[*].d2dCapable true
param *.ueD2D*[0].d2dCapable false
param *.ueD2D*[0].numTcpApps 1
param *.ueD2DRx[0].mobility.initialX 310m
param *.ueD2DRx[0].mobility.initialY 350m
param *.ueD2DRx[0].tcpApp[*].localPort 1000
param *.ueD2DRx[0].tcpApp[*].typename "\"TCPSinkApp\""
param *.ueD2DTx*.nic.d2dPeerAddresses "\"ueD2DTx[1]\""
param *.ueD2DTx*.tcpApp[*].connectAddress "\"ueD2DTx[0]\""
param *.ueD2DTx*.tcpApp[*].localAddress "\"ueD2DTx\""
param *.ueD2DTx*.tcpApp[*].localPort 1000
param *.ueD2DTx*.tcpApp[*].sendBytes 1GiB
param *.ueD2DTx*.tcpApp[*].typename "\"TCPSessionApp\""
param *.ueD2DTx*.tcpApp[0].active true
param *.ueD2DTx*.tcpApp[0].connectPort 1000
param *.ueD2DTx*.tcpApp[0].tOpen uniform(0.010s,0.1s)
param *.ueD2DTx*.tcpApp[0].tSend uniform(0.15s,0.5s)
param *.ueD2DTx[0].mobility.initialX 290m
param *.ueD2DTx[0].mobility.initialY 350m
param *.ueD2DTx[0].tcpApp[*].localPort 1000
param *.ueD2DTx[0].tcpApp[*].sendBytes 1GiB
param *.ueD2DTx[0].tcpApp[*].typename "\"TCPSessionApp\""
param *.ueD2DTx[0].tcpApp[0].active true
param *.ueD2DTx[0].tcpApp[0].connectAddress "\"ueD2DRx[0]\""
param *.ueD2DTx[0].tcpApp[0].connectPort 1000
param *.ueD2DTx[0].tcpApp[0].localAddress "\"ueD2DTx[0]\""
param *.ueD2DTx[0].tcpApp[0].tOpen uniform(0.010s,0.1s)
param *.ueD2DTx[0].tcpApp[0].tSend uniform(0.15s,0.5s)
param *.ueD2DTx[1].mobility.initialX 690m
param *.ueD2DTx[1].mobility.initialY 250m

vector 8  CAIN.server.ppp[0].queue  queueLength:vector  ETV
attr interpolationmode  sample-hold
attr title  "queue length, vector"
vector 9  CAIN.server.ppp[0].ppp  txState:vector  ETV
attr interpolationmode  sample-hold
attr title  "tx state, vector"
vector 24  CAIN.router.ppp[0].queue  queueLength:vector  ETV
attr interpolationmode  sample-hold
attr title  "queue length, vector"
vector 25  CAIN.router.ppp[0].ppp  txState:vector  ETV
attr interpolationmode  sample-hold
attr title  "tx state, vector"
vector 35  CAIN.router.ppp[1].queue  queueLength:vector  ETV
attr interpolationmode  sample-hold
attr title  "queue length, vector"
vector 36  CAIN.router.ppp[1].ppp  txState:vector  ETV
attr interpolationmode  sample-hold
attr title  "tx state, vector"
vector 56  CAIN.pgw.ppp[0].queue  queueLength:vector  ETV
attr interpolationmode  sample-hold
attr title  "queue length, vector"
vector 57  CAIN.pgw.ppp[0].ppp  txState:vector  ETV
attr interpolationmode  sample-hold
attr title  "tx state, vector"
vector 67  CAIN.pgw.ppp[1].queue  queueLength:vector  ETV
attr interpolationmode  sample-hold
attr title  "queue length, vector"
vector 68  CAIN.pgw.ppp[1].ppp  txState:vector  ETV
attr interpolationmode  sample-hold
attr title  "tx state, vector"
vector 78  CAIN.pgw.pppInterface.queue  queueLength:vector  ETV
attr interpolationmode  sample-hold
attr title  "queue length, vector"
vector 79  CAIN.pgw.pppInterface.ppp  txState:vector  ETV
attr interpolationmode  sample-hold
attr title  "tx state, vector"
vector 120  CAIN.eNodeB.pppIf.queue  queueLength:vector  ETV
attr interpolationmode  sample-hold
attr title  "queue length, vector"
vector 121  CAIN.eNodeB.pppIf.ppp  txState:vector  ETV
attr interpolationmode  sample-hold
attr title  "tx state, vector"
vector 131  CAIN.eNodeB.x2ppp[0].queue  queueLength:vector  ETV
attr interpolationmode  sample-hold
attr title  "queue length, vector"
vector 132  CAIN.eNodeB.x2ppp[0].ppp  txState:vector  ETV
attr interpolationmode  sample-hold
attr title  "tx state, vector"
vector 178  CAIN.eNodeB1.pppIf.queue  queueLength:vector  ETV
attr interpolationmode  sample-hold
attr title  "queue length, vector"
vector 179  CAIN.eNodeB1.pppIf.ppp  txState:vector  ETV
attr interpolationmode  sample-hold
attr title  "tx state, vector"
vector 189  CAIN.eNodeB1.x2ppp[0].queue  queueLength:vector  ETV
attr interpolationmode  sample-hold
attr title  "queue length, vector"
vector 190  CAIN.eNodeB1.x2ppp[0].ppp  txState:vector  ETV
attr interpolationmode  sample-hold
attr title  "tx state, vector"
vector 231  CAIN.ueD2DTx[0].nic.phy  servingCell:vector  ETV
attr source  servingCell
attr title  "ID of the serving eNodeB for the UE, vector"
attr unit  ""
vector 263  CAIN.ueD2DTx[1].nic.phy  servingCell:vector  ETV
attr source  servingCell
attr title  "ID of the serving eNodeB for the UE, vector"
attr unit  ""
vector 295  CAIN.ueD2DTx[2].nic.phy  servingCell:vector  ETV
attr source  servingCell
attr title  "ID of the serving eNodeB for the UE, vector"
attr unit  ""
vector 327  CAIN.ueD2DTx[3].nic.phy  servingCell:vector  ETV
attr source  servingCell
attr title  "ID of the serving eNodeB for the UE, vector"
attr unit  ""
vector 359  CAIN.ueD2DTx[4].nic.phy  servingCell:vector  ETV
attr source  servingCell
attr title  "ID of the serving eNodeB for the UE, vector"
attr unit  ""
vector 391  CAIN.ueD2DTx[5].nic.phy  servingCell:vector  ETV
attr source  servingCell
attr title  "ID of the serving eNodeB for the UE, vector"
attr unit  ""
vector 423  CAIN.ueD2DTx[6].nic.phy  servingCell:vector  ETV
attr source  servingCell
attr title  "ID of the serving eNodeB for the UE, vector"
attr unit  ""
vector 455  CAIN.ueD2DTx[7].nic.phy  servingCell:vector  ETV
attr source  servingCell
attr title  "ID of the serving eNodeB for the UE, vector"
attr unit  ""
vector 487  CAIN.ueD2DTx[8].nic.phy  servingCell:vector  ETV
attr source  servingCell
attr title  "ID of the serving eNodeB for the UE, vector"
attr unit  ""
vector 519  CAIN.ueD2DTx[9].nic.phy  servingCell:vector  ETV
attr source  servingCell
attr title  "ID of the serving eNodeB for the UE, vector"
attr unit  ""
vector 551  CAIN.ueD2DTx[10].nic.phy  servingCell:vector  ETV
attr source  servingCell
attr title  "ID of the serving eNodeB for the UE, vector"
attr unit  ""
vector 583  CAIN.ueD2DTx[11].nic.phy  servingCell:vector  ETV
attr source  servingCell
attr title  "ID of the serving eNodeB for the UE, vector"
attr unit  ""
vector 615  CAIN.ueD2DTx[12].nic.phy  servingCell:vector  ETV
attr source  servingCell
attr title  "ID of the serving eNodeB for the UE, vector"
attr unit  ""
vector 647  CAIN.ueD2DTx[13].nic.phy  servingCell:vector  ETV
attr source  servingCell
attr title  "ID of the serving eNodeB for the UE, vector"
attr unit  ""
vector 679  CAIN.ueD2DTx[14].nic.phy  servingCell:vector  ETV
attr source  servingCell
attr title  "ID of the serving eNodeB for the UE, vector"
attr unit  ""
vector 711  CAIN.ueD2DTx[15].nic.phy  servingCell:vector  ETV
attr source  servingCell
attr title  "ID of the serving eNodeB for the UE, vector"
attr unit  ""
vector 743  CAIN.ueD2DTx[16].nic.phy  servingCell:vector  ETV
attr source  servingCell
attr title  "ID of the serving eNodeB for the UE, vector"
attr unit  ""
vector 775  CAIN.ueD2DTx[17].nic.phy  servingCell:vector  ETV
attr source  servingCell
attr title  "ID of the serving eNodeB for the UE, vector"
attr unit  ""
vector 807  CAIN.ueD2DTx[18].nic.phy  servingCell:vector  ETV
attr source  servingCell
attr title  "ID of the serving eNodeB for the UE, vector"
attr unit  ""
vector 839  CAIN.ueD2DTx[19].nic.phy  servingCell:vector  ETV
attr source  servingCell
attr title  "ID of the serving eNodeB for the UE, vector"
attr unit  ""
vector 863  CAIN.eNodeB.sctp  "Throughput of Association 3"  ETV
vector 885  CAIN.eNodeB1.sctp  "Throughput of Association 4"  ETV
vector 907  CAIN.eNodeB.sctp  "Throughput of Association 1"  ETV
vector 927  CAIN.eNodeB.sctp  "Fast Recovery State 1:10.0.5.2"  ETV
vector 956  CAIN.eNodeB1.sctp  "Throughput of Association 2"  ETV
vector 976  CAIN.eNodeB1.sctp  "Fast Recovery State 2:10.0.5.1"  ETV
vector 128  CAIN.eNodeB.x2ppp[0].queue  rcvdPk:vector(packetBytes)  ETV
attr interpolationmode  none
attr title  "received packets, vector(packetBytes)"
vector 130  CAIN.eNodeB.x2ppp[0].queue  queueingTime:vector  ETV
attr interpolationmode  none
attr title  "queueing time, vector"
vector 186  CAIN.eNodeB1.x2ppp[0].queue  rcvdPk:vector(packetBytes)  ETV
attr interpolationmode  none
attr title  "received packets, vector(packetBytes)"
vector 188  CAIN.eNodeB1.x2ppp[0].queue  queueingTime:vector  ETV
attr interpolationmode  none
attr title  "queueing time, vector"
vector 137  CAIN.eNodeB.x2ppp[0].ppp  rcvdPkFromHL:vector(packetBytes)  ETV
attr interpolationmode  none
attr source  packetReceivedFromUpper
attr title  "packets received from higher layer, vector(packetBytes)"
vector 133  CAIN.eNodeB.x2ppp[0].ppp  txPk:vector(packetBytes)  ETV
attr interpolationmode  none
attr source  packetSentToLower
attr title  "packets transmitted, vector(packetBytes)"
vector 195  CAIN.eNodeB1.x2ppp[0].ppp  rcvdPkFromHL:vector(packetBytes)  ETV
attr interpolationmode  none
attr source  packetReceivedFromUpper
attr title  "packets received from higher layer, vector(packetBytes)"
vector 191  CAIN.eNodeB1.x2ppp[0].ppp  txPk:vector(packetBytes)  ETV
attr interpolationmode  none
attr source  packetSentToLower
attr title  "packets transmitted, vector(packetBytes)"
vector 192  CAIN.eNodeB1.x2ppp[0].ppp  rxPkOk:vector(packetBytes)  ETV
attr interpolationmode  none
attr source  rxPkOk
attr title  "packets received OK, vector(packetBytes)"
vector 196  CAIN.eNodeB1.x2ppp[0].ppp  passedUpPk:vector(packetBytes)  ETV
attr interpolationmode  none
attr source  packetSentToUpper
attr title  "packets passed to higher layer, vector(packetBytes)"
vector 134  CAIN.eNodeB.x2ppp[0].ppp  rxPkOk:vector(packetBytes)  ETV
attr interpolationmode  none
attr source  rxPkOk
attr title  "packets received OK, vector(packetBytes)"
vector 138  CAIN.eNodeB.x2ppp[0].ppp  passedUpPk:vector(packetBytes)  ETV
attr interpolationmode  none
attr source  packetSentToUpper
attr title  "packets passed to higher layer, vector(packetBytes)"
vector 1005  CAIN.eNodeB1.sctp  "Throughput of Association 4"  ETV
vector 882  CAIN.eNodeB1.sctp  "Peer Rwnd 4"  ETV
vector 1025  CAIN.eNodeB1.sctp  "Fast Recovery State 5:10.0.4.1"  ETV
vector 1052  CAIN.eNodeB1.sctp  "Fast Recovery State 5:10.0.2.2"  ETV
vector 1079  CAIN.eNodeB1.sctp  "Fast Recovery State 5:10.0.5.1"  ETV
vector 1108  CAIN.eNodeB.sctp  "Throughput of Association 3"  ETV
vector 860  CAIN.eNodeB.sctp  "Peer Rwnd 3"  ETV
vector 1128  CAIN.eNodeB.sctp  "Fast Recovery State 6:10.0.4.2"  ETV
vector 1155  CAIN.eNodeB.sctp  "Fast Recovery State 6:10.0.3.2"  ETV
vector 1182  CAIN.eNodeB.sctp  "Fast Recovery State 6:10.0.5.2"  ETV
vector 904  CAIN.eNodeB.sctp  "Peer Rwnd 1"  ETV
vector 1209  CAIN.eNodeB.sctp  "Fast Recovery State 1:10.0.4.2"  ETV
vector 1236  CAIN.eNodeB.sctp  "Fast Recovery State 1:10.0.3.2"  ETV
vector 953  CAIN.eNodeB1.sctp  "Peer Rwnd 2"  ETV
vector 1263  CAIN.eNodeB1.sctp  "Fast Recovery State 2:10.0.4.1"  ETV
vector 1290  CAIN.eNodeB1.sctp  "Fast Recovery State 2:10.0.2.2"  ETV
vector 1035  CAIN.eNodeB1.sctp  "Slow Start Threshold 5:10.0.2.2"  ETV
vector 1036  CAIN.eNodeB1.sctp  "Congestion Window 5:10.0.2.2"  ETV
vector 1037  CAIN.eNodeB1.sctp  "Bandwidth 5:10.0.2.2"  ETV
vector 1040  CAIN.eNodeB1.sctp  "HB Sent 5:10.0.2.2"  ETV
vector 1033  CAIN.eNodeB1.sctp  "RTO 5:10.0.2.2"  ETV
vector 1008  CAIN.eNodeB1.sctp  "Slow Start Threshold 5:10.0.4.1"  ETV
vector 1009  CAIN.eNodeB1.sctp  "Congestion Window 5:10.0.4.1"  ETV
vector 1010  CAIN.eNodeB1.sctp  "Bandwidth 5:10.0.4.1"  ETV
vector 1013  CAIN.eNodeB1.sctp  "HB Sent 5:10.0.4.1"  ETV
vector 1006  CAIN.eNodeB1.sctp  "RTO 5:10.0.4.1"  ETV
vector 1062  CAIN.eNodeB1.sctp  "Slow Start Threshold 5:10.0.5.1"  ETV
vector 1063  CAIN.eNodeB1.sctp  "Congestion Window 5:10.0.5.1"  ETV
vector 1064  CAIN.eNodeB1.sctp  "Bandwidth 5:10.0.5.1"  ETV
vector 1060  CAIN.eNodeB1.sctp  "RTO 5:10.0.5.1"  ETV
vector 1138  CAIN.eNodeB.sctp  "Slow Start Threshold 6:10.0.3.2"  ETV
vector 1139  CAIN.eNodeB.sctp  "Congestion Window 6:10.0.3.2"  ETV
vector 1140  CAIN.eNodeB.sctp  "Bandwidth 6:10.0.3.2"  ETV
vector 1143  CAIN.eNodeB.sctp  "HB Sent 6:10.0.3.2"  ETV
vector 1136  CAIN.eNodeB.sctp  "RTO 6:10.0.3.2"  ETV
vector 1111  CAIN.eNodeB.sctp  "Slow Start Threshold 6:10.0.4.2"  ETV
vector 1112  CAIN.eNodeB.sctp  "Congestion Window 6:10.0.4.2"  ETV
vector 1113  CAIN.eNodeB.sctp  "Bandwidth 6:10.0.4.2"  ETV
vector 1116  CAIN.eNodeB.sctp  "HB Sent 6:10.0.4.2"  ETV
vector 1109  CAIN.eNodeB.sctp  "RTO 6:10.0.4.2"  ETV
vector 1165  CAIN.eNodeB.sctp  "Slow Start Threshold 6:10.0.5.2"  ETV
vector 1166  CAIN.eNodeB.sctp  "Congestion Window 6:10.0.5.2"  ETV
vector 1167  CAIN.eNodeB.sctp  "Bandwidth 6:10.0.5.2"  ETV
vector 1163  CAIN.eNodeB.sctp  "RTO 6:10.0.5.2"  ETV
vector 916  CAIN.eNodeB.sctp  "HB ACK Sent 1:10.0.5.2"  ETV
vector 917  CAIN.eNodeB.sctp  "HB Received 1:10.0.5.2"  ETV
vector 965  CAIN.eNodeB1.sctp  "HB ACK Sent 2:10.0.5.1"  ETV
vector 966  CAIN.eNodeB1.sctp  "HB Received 2:10.0.5.1"  ETV
vector 1219  CAIN.eNodeB.sctp  "Slow Start Threshold 1:10.0.3.2"  ETV
vector 1220  CAIN.eNodeB.sctp  "Congestion Window 1:10.0.3.2"  ETV
vector 1221  CAIN.eNodeB.sctp  "Bandwidth 1:10.0.3.2"  ETV
vector 1224  CAIN.eNodeB.sctp  "HB Sent 1:10.0.3.2"  ETV
vector 1217  CAIN.eNodeB.sctp  "RTO 1:10.0.3.2"  ETV
vector 1192  CAIN.eNodeB.sctp  "Slow Start Threshold 1:10.0.4.2"  ETV
vector 1193  CAIN.eNodeB.sctp  "Congestion Window 1:10.0.4.2"  ETV
vector 1194  CAIN.eNodeB.sctp  "Bandwidth 1:10.0.4.2"  ETV
vector 1197  CAIN.eNodeB.sctp  "HB Sent 1:10.0.4.2"  ETV
vector 1190  CAIN.eNodeB.sctp  "RTO 1:10.0.4.2"  ETV
vector 910  CAIN.eNodeB.sctp  "Slow Start Threshold 1:10.0.5.2"  ETV
vector 911  CAIN.eNodeB.sctp  "Congestion Window 1:10.0.5.2"  ETV
vector 912  CAIN.eNodeB.sctp  "Bandwidth 1:10.0.5.2"  ETV
vector 908  CAIN.eNodeB.sctp  "RTO 1:10.0.5.2"  ETV
vector 1273  CAIN.eNodeB1.sctp  "Slow Start Threshold 2:10.0.2.2"  ETV
vector 1274  CAIN.eNodeB1.sctp  "Congestion Window 2:10.0.2.2"  ETV
vector 1275  CAIN.eNodeB1.sctp  "Bandwidth 2:10.0.2.2"  ETV
vector 1278  CAIN.eNodeB1.sctp  "HB Sent 2:10.0.2.2"  ETV
vector 1271  CAIN.eNodeB1.sctp  "RTO 2:10.0.2.2"  ETV
vector 1246  CAIN.eNodeB1.sctp  "Slow Start Threshold 2:10.0.4.1"  ETV
vector 1247  CAIN.eNodeB1.sctp  "Congestion Window 2:10.0.4.1"  ETV
vector 1248  CAIN.eNodeB1.sctp  "Bandwidth 2:10.0.4.1"  ETV
vector 1251  CAIN.eNodeB1.sctp  "HB Sent 2:10.0.4.1"  ETV
vector 1244  CAIN.eNodeB1.sctp  "RTO 2:10.0.4.1"  ETV
vector 959  CAIN.eNodeB1.sctp  "Slow Start Threshold 2:10.0.5.1"  ETV
vector 960  CAIN.eNodeB1.sctp  "Congestion Window 2:10.0.5.1"  ETV
vector 961  CAIN.eNodeB1.sctp  "Bandwidth 2:10.0.5.1"  ETV
vector 957  CAIN.eNodeB1.sctp  "RTO 2:10.0.5.1"  ETV
vector 1173  CAIN.eNodeB.sctp  "HB ACK Received 6:10.0.5.2"  ETV
vector 1164  CAIN.eNodeB.sctp  "RTT 6:10.0.5.2"  ETV
vector 1070  CAIN.eNodeB1.sctp  "HB ACK Received 5:10.0.5.1"  ETV
vector 1061  CAIN.eNodeB1.sctp  "RTT 5:10.0.5.1"  ETV
vector 1171  CAIN.eNodeB.sctp  "HB ACK Sent 6:10.0.5.2"  ETV
vector 1172  CAIN.eNodeB.sctp  "HB Received 6:10.0.5.2"  ETV
vector 1068  CAIN.eNodeB1.sctp  "HB ACK Sent 5:10.0.5.1"  ETV
vector 1069  CAIN.eNodeB1.sctp  "HB Received 5:10.0.5.1"  ETV
vector 967  CAIN.eNodeB1.sctp  "HB ACK Received 2:10.0.5.1"  ETV
vector 958  CAIN.eNodeB1.sctp  "RTT 2:10.0.5.1"  ETV
vector 918  CAIN.eNodeB.sctp  "HB ACK Received 1:10.0.5.2"  ETV
vector 909  CAIN.eNodeB.sctp  "RTT 1:10.0.5.2"  ETV
vector 96  CAIN.eNodeB.nic.mac  receivedPacketFromLowerLayer:vector(packetBytes)  ETV
attr interpolationmode  none
attr source  receivedPacketFromLowerLayer
vector 1305  CAIN.eNodeB.sctp  "SendQueue of Association 6"  ETV
vector 1168  CAIN.eNodeB.sctp  "TSN Sent 6:10.0.5.2"  ETV
vector 1175  CAIN.eNodeB.sctp  "Outstanding Bytes 6:10.0.5.2"  ETV
vector 848  CAIN.eNodeB.sctp  "Outstanding Bytes 3:Total"  ETV
vector 1174  CAIN.eNodeB.sctp  "Queued Sent Bytes 6:10.0.5.2"  ETV
vector 847  CAIN.eNodeB.sctp  "Queued Sent Bytes 3:Total"  ETV
vector 963  CAIN.eNodeB1.sctp  "TSN Received 2:10.0.5.1"  ETV
vector 939  CAIN.eNodeB1.sctp  "Queued Received Bytes 2:Total"  ETV
vector 935  CAIN.eNodeB1.sctp  "Advertised Receiver Window 2"  ETV
vector 944  CAIN.eNodeB1.sctp  "Number of Total Gap Blocks Stored 2"  ETV
vector 945  CAIN.eNodeB1.sctp  "Number of Revokable Gap Blocks Stored 2"  ETV
vector 946  CAIN.eNodeB1.sctp  "Number of Non-Revokable Gap Blocks Stored 2"  ETV
vector 947  CAIN.eNodeB1.sctp  "Number of Duplicate TSNs Stored 2"  ETV
vector 951  CAIN.eNodeB1.sctp  "Length of SACK Sent 2"  ETV
vector 948  CAIN.eNodeB1.sctp  "Number of Revokable Gap Blocks Sent 2"  ETV
vector 949  CAIN.eNodeB1.sctp  "Number of Non-Revokable Gap Blocks Sent 2"  ETV
vector 950  CAIN.eNodeB1.sctp  "Number of Duplicate TSNs Sent 2"  ETV
vector 955  CAIN.eNodeB1.sctp  "End to End Delay of Association 2"  ETV
vector 199  CAIN.eNodeB1.x2App[0].client  rcvdPk:vector(packetBytes)  ETV
attr interpolationmode  none
attr source  rcvdPk
attr title  "packets received, vector(packetBytes)"
vector 1304  CAIN.eNodeB.sctp  "Number of Gap Blocks in Last SACK of Association 6"  ETV
vector 849  CAIN.eNodeB.sctp  "Number of Revokable Gap Blocks in SACK 3"  ETV
vector 850  CAIN.eNodeB.sctp  "Number of Non-Revokable Gap Blocks in SACK 3"  ETV
vector 1185  CAIN.eNodeB.sctp  "TSN Acked CumAck 6:10.0.5.2"  ETV
vector 1151  CAIN.eNodeB.sctp  "Number of Gap Acked Chunks in Last SACK 6:10.0.3.2"  ETV
vector 1152  CAIN.eNodeB.sctp  "Number of Non-Revokable Gap Acked Chunks in Last SACK 6:10.0.3.2"  ETV
vector 1153  CAIN.eNodeB.sctp  "Number of Gap Missed Chunks in Last SACK 6:10.0.3.2"  ETV
vector 1124  CAIN.eNodeB.sctp  "Number of Gap Acked Chunks in Last SACK 6:10.0.4.2"  ETV
vector 1125  CAIN.eNodeB.sctp  "Number of Non-Revokable Gap Acked Chunks in Last SACK 6:10.0.4.2"  ETV
vector 1126  CAIN.eNodeB.sctp  "Number of Gap Missed Chunks in Last SACK 6:10.0.4.2"  ETV
vector 1178  CAIN.eNodeB.sctp  "Number of Gap Acked Chunks in Last SACK 6:10.0.5.2"  ETV
vector 1179  CAIN.eNodeB.sctp  "Number of Non-Revokable Gap Acked Chunks in Last SACK 6:10.0.5.2"  ETV
vector 1180  CAIN.eNodeB.sctp  "Number of Gap Missed Chunks in Last SACK 6:10.0.5.2"  ETV
vector 859  CAIN.eNodeB.sctp  "Arwnd in Last SACK 3"  ETV
vector 1187  CAIN.eNodeB.sctp  "TSN PseudoCumAck 6:10.0.5.2"  ETV
vector 1188  CAIN.eNodeB.sctp  "TSN RTXPseudoCumAck 6:10.0.5.2"  ETV
vector 1181  CAIN.eNodeB.sctp  "Partial Bytes Acked 6:10.0.5.2"  ETV
vector 1333  CAIN.ueD2DTx[12].tcp  tcpRcvQueueBytes  ETV
vector 1320  CAIN.ueD2DTx[12].tcp  "advertised window"  ETV
vector 1319  CAIN.ueD2DTx[12].tcp  "receive window"  ETV
vector 1322  CAIN.ueD2DTx[12].tcp  "sent ack"  ETV
vector 589  CAIN.ueD2DTx[12].nic.pdcpRrc  receivedPacketFromUpperLayer:vector(packetBytes)  ETV
attr interpolationmode  none
attr source  receivedPacketFromUpperLayer
vector 592  CAIN.ueD2DTx[12].nic.pdcpRrc  sentPacketToLowerLayer:vector(packetBytes)  ETV
attr interpolationmode  none
attr source  sentPacketToLowerLayer
vector 593  CAIN.ueD2DTx[12].nic.mac  receivedPacketFromUpperLayer:vector(packetBytes)  ETV
attr interpolationmode  none
attr source  receivedPacketFromUpperLayer
vector 596  CAIN.ueD2DTx[12].nic.mac  sentPacketToLowerLayer:vector(packetBytes)  ETV
attr interpolationmode  none
attr source  sentPacketToLowerLayer
vector 111  CAIN.eNodeB.nic.mac  racpkt:vector  ETV
attr interpolationmode  none
attr title  "eNB received racpkt message, vector"
vector 112  CAIN.eNodeB.nic.mac  racDistanceSignal:vector  ETV
attr interpolationmode  none
attr title  "Rac distance to enb, vector"
vector 113  CAIN.eNodeB.nic.mac  racServedDevsSignal:vector  ETV
attr interpolationmode  none
attr title  "# of devices served on rac arriavall, vector"
vector 98  CAIN.eNodeB.nic.mac  sentPacketToLowerLayer:vector(packetBytes)  ETV
attr interpolationmode  none
attr source  sentPacketToLowerLayer
vector 594  CAIN.ueD2DTx[12].nic.mac  receivedPacketFromLowerLayer:vector(packetBytes)  ETV
attr interpolationmode  none
attr source  receivedPacketFromLowerLayer
vector 1357  CAIN.ueD2DTx[10].tcp  tcpRcvQueueBytes  ETV
vector 1344  CAIN.ueD2DTx[10].tcp  "advertised window"  ETV
vector 1343  CAIN.ueD2DTx[10].tcp  "receive window"  ETV
vector 1346  CAIN.ueD2DTx[10].tcp  "sent ack"  ETV
vector 525  CAIN.ueD2DTx[10].nic.pdcpRrc  receivedPacketFromUpperLayer:vector(packetBytes)  ETV
attr interpolationmode  none
attr source  receivedPacketFromUpperLayer
vector 528  CAIN.ueD2DTx[10].nic.pdcpRrc  sentPacketToLowerLayer:vector(packetBytes)  ETV
attr interpolationmode  none
attr source  sentPacketToLowerLayer
vector 529  CAIN.ueD2DTx[10].nic.mac  receivedPacketFromUpperLayer:vector(packetBytes)  ETV
attr interpolationmode  none
attr source  receivedPacketFromUpperLayer
vector 539  CAIN.ueD2DTx[10].nic.mac  CainHopMessageSent:vector  ETV
attr interpolationmode  none
attr title  "# of Sent CAIN hop message, vector"
vector 532  CAIN.ueD2DTx[10].nic.mac  sentPacketToLowerLayer:vector(packetBytes)  ETV
attr interpolationmode  none
attr source  sentPacketToLowerLayer
vector 595  CAIN.ueD2DTx[12].nic.mac  sentPacketToUpperLayer:vector(packetBytes)  ETV
attr interpolationmode  none
attr source  sentPacketToUpperLayer
vector 690  CAIN.ueD2DTx[15].nic.mac  receivedPacketFromLowerLayer:vector(packetBytes)  ETV
attr interpolationmode  none
attr source  receivedPacketFromLowerLayer
vector 692  CAIN.ueD2DTx[15].nic.mac  sentPacketToLowerLayer:vector(packetBytes)  ETV
attr interpolationmode  none
attr source  sentPacketToLowerLayer
vector 115  CAIN.eNodeB.nic.phy  averageCqiUlvect:vector  ETV
attr source  averageCqiUlvect
attr title  "Average Cqi reported in UL, vector"
attr unit  cqi
vector 818  CAIN.ueD2DTx[19].nic.mac  receivedPacketFromLowerLayer:vector(packetBytes)  ETV
attr interpolationmode  none
attr source  receivedPacketFromLowerLayer
vector 820  CAIN.ueD2DTx[19].nic.mac  sentPacketToLowerLayer:vector(packetBytes)  ETV
attr interpolationmode  none
attr source  sentPacketToLowerLayer
vector 1381  CAIN.ueD2DTx[3].tcp  tcpRcvQueueBytes  ETV
vector 1368  CAIN.ueD2DTx[3].tcp  "advertised window"  ETV
vector 1367  CAIN.ueD2DTx[3].tcp  "receive window"  ETV
vector 1370  CAIN.ueD2DTx[3].tcp  "sent ack"  ETV
vector 301  CAIN.ueD2DTx[3].nic.pdcpRrc  receivedPacketFromUpperLayer:vector(packetBytes)  ETV
attr interpolationmode  none
attr source  receivedPacketFromUpperLayer
vector 304  CAIN.ueD2DTx[3].nic.pdcpRrc  sentPacketToLowerLayer:vector(packetBytes)  ETV
attr interpolationmode  none
attr source  sentPacketToLowerLayer
vector 305  CAIN.ueD2DTx[3].nic.mac  receivedPacketFromUpperLayer:vector(packetBytes)  ETV
attr interpolationmode  none
attr source  receivedPacketFromUpperLayer
vector 314  CAIN.ueD2DTx[3].nic.mac  CainMessageSent:vector  ETV
attr interpolationmode  none
attr title  "# of Sent CAIN message, vector"
vector 308  CAIN.ueD2DTx[3].nic.mac  sentPacketToLowerLayer:vector(packetBytes)  ETV
attr interpolationmode  none
attr source  sentPacketToLowerLayer
vector 106  CAIN.eNodeB.nic.mac  DistanceSignal:vector  ETV
attr interpolationmode  none
attr title  "Distance to enb, vector"
vector 101  CAIN.eNodeB.nic.mac  CainHopMessage:vector  ETV
attr interpolationmode  none
attr title  "eNB received CAIN hop message, vector"
vector 210  CAIN.ueD2DTx[0].nic.mac  receivedPacketFromLowerLayer:vector(packetBytes)  ETV
attr interpolationmode  none
attr source  receivedPacketFromLowerLayer
vector 212  CAIN.ueD2DTx[0].nic.mac  sentPacketToLowerLayer:vector(packetBytes)  ETV
attr interpolationmode  none
attr source  sentPacketToLowerLayer
vector 825  CAIN.ueD2DTx[19].nic.mac  DropedHopMessage:vector  ETV
attr interpolationmode  none
attr title  "Droped Hop CAIN message due to RB not available, vector"
vector 99  CAIN.eNodeB.nic.mac  measuredItbs:vector  ETV
attr source  measuredItbs
attr title  "TBS index, vector"
attr unit  ""
vector 100  CAIN.eNodeB.nic.mac  CainMessage:vector  ETV
attr interpolationmode  none
attr title  "eNB received CAIN message, vector"
vector 1405  CAIN.ueD2DTx[19].tcp  tcpRcvQueueBytes  ETV
vector 1392  CAIN.ueD2DTx[19].tcp  "advertised window"  ETV
vector 1391  CAIN.ueD2DTx[19].tcp  "receive window"  ETV
vector 1394  CAIN.ueD2DTx[19].tcp  "sent ack"  ETV
vector 813  CAIN.ueD2DTx[19].nic.pdcpRrc  receivedPacketFromUpperLayer:vector(packetBytes)  ETV
attr interpolationmode  none
attr source  receivedPacketFromUpperLayer
vector 816  CAIN.ueD2DTx[19].nic.pdcpRrc  sentPacketToLowerLayer:vector(packetBytes)  ETV
attr interpolationmode  none
attr source  sentPacketToLowerLayer
vector 817  CAIN.ueD2DTx[19].nic.mac  receivedPacketFromUpperLayer:vector(packetBytes)  ETV
attr interpolationmode  none
attr source  receivedPacketFromUpperLayer
vector 216  CAIN.ueD2DTx[0].nic.mac  DropedCainMessage:vector  ETV
attr interpolationmode  none
attr title  "Droped CAIN message due to RB not available, vector"
vector 1429  CAIN.ueD2DTx[16].tcp  tcpRcvQueueBytes  ETV
vector 1416  CAIN.ueD2DTx[16].tcp  "advertised window"  ETV
vector 1415  CAIN.ueD2DTx[16].tcp  "receive window"  ETV
vector 1418  CAIN.ueD2DTx[16].tcp  "sent ack"  ETV
vector 717  CAIN.ueD2DTx[16].nic.pdcpRrc  receivedPacketFromUpperLayer:vector(packetBytes)  ETV
attr interpolationmode  none
attr source  receivedPacketFromUpperLayer
vector 720  CAIN.ueD2DTx[16].nic.pdcpRrc  sentPacketToLowerLayer:vector(packetBytes)  ETV
attr interpolationmode  none
attr source  sentPacketToLowerLayer
vector 721  CAIN.ueD2DTx[16].nic.mac  receivedPacketFromUpperLayer:vector(packetBytes)  ETV
attr interpolationmode  none
attr source  receivedPacketFromUpperLayer
vector 724  CAIN.ueD2DTx[16].nic.mac  sentPacketToLowerLayer:vector(packetBytes)  ETV
attr interpolationmode  none
attr source  sentPacketToLowerLayer
vector 819  CAIN.ueD2DTx[19].nic.mac  sentPacketToUpperLayer:vector(packetBytes)  ETV
attr interpolationmode  none
attr source  sentPacketToUpperLayer
vector 109  CAIN.eNodeB.nic.mac  ServedHopDevs:vector  ETV
attr interpolationmode  none
attr title  "# of devices served on hop forwarding, vector"
vector 97  CAIN.eNodeB.nic.mac  sentPacketToUpperLayer:vector(packetBytes)  ETV
attr interpolationmode  none
attr source  sentPacketToUpperLayer
vector 92  CAIN.eNodeB.nic.pdcpRrc  receivedPacketFromLowerLayer:vector(packetBytes)  ETV
attr interpolationmode  none
attr source  receivedPacketFromLowerLayer
vector 93  CAIN.eNodeB.nic.pdcpRrc  sentPacketToUpperLayer:vector(packetBytes)  ETV
attr interpolationmode  none
attr source  sentPacketToUpperLayer
vector 91  CAIN.eNodeB.nic.pdcpRrc  receivedPacketFromUpperLayer:vector(packetBytes)  ETV
attr interpolationmode  none
attr source  receivedPacketFromUpperLayer
vector 94  CAIN.eNodeB.nic.pdcpRrc  sentPacketToLowerLayer:vector(packetBytes)  ETV
attr interpolationmode  none
attr source  sentPacketToLowerLayer
vector 95  CAIN.eNodeB.nic.mac  receivedPacketFromUpperLayer:vector(packetBytes)  ETV
attr interpolationmode  none
attr source  receivedPacketFromUpperLayer
vector 722  CAIN.ueD2DTx[16].nic.mac  receivedPacketFromLowerLayer:vector(packetBytes)  ETV
attr interpolationmode  none
attr source  receivedPacketFromLowerLayer
vector 228  CAIN.ueD2DTx[0].nic.phy  averageCqiDlvect:vector  ETV
attr source  averageCqiDlvect
attr title  "Average Cqi reported in DL, vector"
attr unit  cqi
vector 723  CAIN.ueD2DTx[16].nic.mac  sentPacketToUpperLayer:vector(packetBytes)  ETV
attr interpolationmode  none
attr source  sentPacketToUpperLayer
vector 1453  CAIN.ueD2DTx[5].tcp  tcpRcvQueueBytes  ETV
vector 1440  CAIN.ueD2DTx[5].tcp  "advertised window"  ETV
vector 1439  CAIN.ueD2DTx[5].tcp  "receive window"  ETV
vector 1442  CAIN.ueD2DTx[5].tcp  "sent ack"  ETV
vector 365  CAIN.ueD2DTx[5].nic.pdcpRrc  receivedPacketFromUpperLayer:vector(packetBytes)  ETV
attr interpolationmode  none
attr source  receivedPacketFromUpperLayer
vector 368  CAIN.ueD2DTx[5].nic.pdcpRrc  sentPacketToLowerLayer:vector(packetBytes)  ETV
attr interpolationmode  none
attr source  sentPacketToLowerLayer
vector 369  CAIN.ueD2DTx[5].nic.mac  receivedPacketFromUpperLayer:vector(packetBytes)  ETV
attr interpolationmode  none
attr source  receivedPacketFromUpperLayer
vector 379  CAIN.ueD2DTx[5].nic.mac  CainHopMessageSent:vector  ETV
attr interpolationmode  none
attr title  "# of Sent CAIN hop message, vector"
vector 372  CAIN.ueD2DTx[5].nic.mac  sentPacketToLowerLayer:vector(packetBytes)  ETV
attr interpolationmode  none
attr source  sentPacketToLowerLayer
vector 211  CAIN.ueD2DTx[0].nic.mac  sentPacketToUpperLayer:vector(packetBytes)  ETV
attr interpolationmode  none
attr source  sentPacketToUpperLayer
vector 206  CAIN.ueD2DTx[0].nic.pdcpRrc  receivedPacketFromLowerLayer:vector(packetBytes)  ETV
attr interpolationmode  none
attr source  receivedPacketFromLowerLayer
vector 207  CAIN.ueD2DTx[0].nic.pdcpRrc  sentPacketToUpperLayer:vector(packetBytes)  ETV
attr interpolationmode  none
attr source  sentPacketToUpperLayer
vector 786  CAIN.ueD2DTx[18].nic.mac  receivedPacketFromLowerLayer:vector(packetBytes)  ETV
attr interpolationmode  none
attr source  receivedPacketFromLowerLayer
vector 788  CAIN.ueD2DTx[18].nic.mac  sentPacketToLowerLayer:vector(packetBytes)  ETV
attr interpolationmode  none
attr source  sentPacketToLowerLayer
vector 793  CAIN.ueD2DTx[18].nic.mac  DropedHopMessage:vector  ETV
attr interpolationmode  none
attr title  "Droped Hop CAIN message due to RB not available, vector"
vector 1477  CAIN.ueD2DTx[13].tcp  tcpRcvQueueBytes  ETV
vector 1464  CAIN.ueD2DTx[13].tcp  "advertised window"  ETV
vector 1463  CAIN.ueD2DTx[13].tcp  "receive window"  ETV
vector 1466  CAIN.ueD2DTx[13].tcp  "sent ack"  ETV
vector 621  CAIN.ueD2DTx[13].nic.pdcpRrc  receivedPacketFromUpperLayer:vector(packetBytes)  ETV
attr interpolationmode  none
attr source  receivedPacketFromUpperLayer
vector 624  CAIN.ueD2DTx[13].nic.pdcpRrc  sentPacketToLowerLayer:vector(packetBytes)  ETV
attr interpolationmode  none
attr source  sentPacketToLowerLayer
vector 625  CAIN.ueD2DTx[13].nic.mac  receivedPacketFromUpperLayer:vector(packetBytes)  ETV
attr interpolationmode  none
attr source  receivedPacketFromUpperLayer
vector 628  CAIN.ueD2DTx[13].nic.mac  sentPacketToLowerLayer:vector(packetBytes)  ETV
attr interpolationmode  none
attr source  sentPacketToLowerLayer
vector 626  CAIN.ueD2DTx[13].nic.mac  receivedPacketFromLowerLayer:vector(packetBytes)  ETV
attr interpolationmode  none
attr source  receivedPacketFromLowerLayer
vector 627  CAIN.ueD2DTx[13].nic.mac  sentPacketToUpperLayer:vector(packetBytes)  ETV
attr interpolationmode  none
attr source  sentPacketToUpperLayer
vector 1501  CAIN.ueD2DTx[11].tcp  tcpRcvQueueBytes  ETV
vector 1488  CAIN.ueD2DTx[11].tcp  "advertised window"  ETV
vector 1487  CAIN.ueD2DTx[11].tcp  "receive window"  ETV
vector 1490  CAIN.ueD2DTx[11].tcp  "sent ack"  ETV
vector 557  CAIN.ueD2DTx[11].nic.pdcpRrc  receivedPacketFromUpperLayer:vector(packetBytes)  ETV
attr interpolationmode  none
attr source  receivedPacketFromUpperLayer
vector 560  CAIN.ueD2DTx[11].nic.pdcpRrc  sentPacketToLowerLayer:vector(packetBytes)  ETV
attr interpolationmode  none
attr source  sentPacketToLowerLayer
vector 561  CAIN.ueD2DTx[11].nic.mac  receivedPacketFromUpperLayer:vector(packetBytes)  ETV
attr interpolationmode  none
attr source  receivedPacketFromUpperLayer
vector 1525  CAIN.ueD2DTx[8].tcp  tcpRcvQueueBytes  ETV
vector 1512  CAIN.ueD2DTx[8].tcp  "advertised window"  ETV
vector 1511  CAIN.ueD2DTx[8].tcp  "receive window"  ETV
vector 1514  CAIN.ueD2DTx[8].tcp  "sent ack"  ETV
vector 461  CAIN.ueD2DTx[8].nic.pdcpRrc  receivedPacketFromUpperLayer:vector(packetBytes)  ETV
attr interpolationmode  none
attr source  receivedPacketFromUpperLayer
vector 464  CAIN.ueD2DTx[8].nic.pdcpRrc  sentPacketToLowerLayer:vector(packetBytes)  ETV
attr interpolationmode  none
attr source  sentPacketToLowerLayer
vector 465  CAIN.ueD2DTx[8].nic.mac  receivedPacketFromUpperLayer:vector(packetBytes)  ETV
attr interpolationmode  none
attr source  receivedPacketFromUpperLayer
vector 475  CAIN.ueD2DTx[8].nic.mac  CainHopMessageSent:vector  ETV
attr interpolationmode  none
attr title  "# of Sent CAIN hop message, vector"
vector 468  CAIN.ueD2DTx[8].nic.mac  sentPacketToLowerLayer:vector(packetBytes)  ETV
attr interpolationmode  none
attr source  sentPacketToLowerLayer
vector 564  CAIN.ueD2DTx[11].nic.mac  sentPacketToLowerLayer:vector(packetBytes)  ETV
attr interpolationmode  none
attr source  sentPacketToLowerLayer
vector 1549  CAIN.ueD2DTx[14].tcp  tcpRcvQueueBytes  ETV
vector 1536  CAIN.ueD2DTx[14].tcp  "advertised window"  ETV
vector 1535  CAIN.ueD2DTx[14].tcp  "receive window"  ETV
vector 1538  CAIN.ueD2DTx[14].tcp  "sent ack"  ETV
vector 653  CAIN.ueD2DTx[14].nic.pdcpRrc  receivedPacketFromUpperLayer:vector(packetBytes)  ETV
attr interpolationmode  none
attr source  receivedPacketFromUpperLayer
vector 656  CAIN.ueD2DTx[14].nic.pdcpRrc  sentPacketToLowerLayer:vector(packetBytes)  ETV
attr interpolationmode  none
attr source  sentPacketToLowerLayer
vector 657  CAIN.ueD2DTx[14].nic.mac  receivedPacketFromUpperLayer:vector(packetBytes)  ETV
attr interpolationmode  none
attr source  receivedPacketFromUpperLayer
vector 660  CAIN.ueD2DTx[14].nic.mac  sentPacketToLowerLayer:vector(packetBytes)  ETV
attr interpolationmode  none
attr source  sentPacketToLowerLayer
vector 562  CAIN.ueD2DTx[11].nic.mac  receivedPacketFromLowerLayer:vector(packetBytes)  ETV
attr interpolationmode  none
attr source  receivedPacketFromLowerLayer
vector 1301  CAIN.eNodeB1.sctp  "SendQueue of Association 5"  ETV
vector 1065  CAIN.eNodeB1.sctp  "TSN Sent 5:10.0.5.1"  ETV
vector 1072  CAIN.eNodeB1.sctp  "Outstanding Bytes 5:10.0.5.1"  ETV
vector 870  CAIN.eNodeB1.sctp  "Outstanding Bytes 4:Total"  ETV
vector 1071  CAIN.eNodeB1.sctp  "Queued Sent Bytes 5:10.0.5.1"  ETV
vector 869  CAIN.eNodeB1.sctp  "Queued Sent Bytes 4:Total"  ETV
vector 914  CAIN.eNodeB.sctp  "TSN Received 1:10.0.5.2"  ETV
vector 890  CAIN.eNodeB.sctp  "Queued Received Bytes 1:Total"  ETV
vector 886  CAIN.eNodeB.sctp  "Advertised Receiver Window 1"  ETV
vector 895  CAIN.eNodeB.sctp  "Number of Total Gap Blocks Stored 1"  ETV
vector 896  CAIN.eNodeB.sctp  "Number of Revokable Gap Blocks Stored 1"  ETV
vector 897  CAIN.eNodeB.sctp  "Number of Non-Revokable Gap Blocks Stored 1"  ETV
vector 898  CAIN.eNodeB.sctp  "Number of Duplicate TSNs Stored 1"  ETV
vector 902  CAIN.eNodeB.sctp  "Length of SACK Sent 1"  ETV
vector 899  CAIN.eNodeB.sctp  "Number of Revokable Gap Blocks Sent 1"  ETV
vector 900  CAIN.eNodeB.sctp  "Number of Non-Revokable Gap Blocks Sent 1"  ETV
vector 901  CAIN.eNodeB.sctp  "Number of Duplicate TSNs Sent 1"  ETV
vector 906  CAIN.eNodeB.sctp  "End to End Delay of Association 1"  ETV
vector 141  CAIN.eNodeB.x2App[0].client  rcvdPk:vector(packetBytes)  ETV
attr interpolationmode  none
attr source  rcvdPk
attr title  "packets received, vector(packetBytes)"
vector 1300  CAIN.eNodeB1.sctp  "Number of Gap Blocks in Last SACK of Association 5"  ETV
vector 871  CAIN.eNodeB1.sctp  "Number of Revokable Gap Blocks in SACK 4"  ETV
vector 872  CAIN.eNodeB1.sctp  "Number of Non-Revokable Gap Blocks in SACK 4"  ETV
vector 1082  CAIN.eNodeB1.sctp  "TSN Acked CumAck 5:10.0.5.1"  ETV
vector 1048  CAIN.eNodeB1.sctp  "Number of Gap Acked Chunks in Last SACK 5:10.0.2.2"  ETV
vector 1049  CAIN.eNodeB1.sctp  "Number of Non-Revokable Gap Acked Chunks in Last SACK 5:10.0.2.2"  ETV
vector 1050  CAIN.eNodeB1.sctp  "Number of Gap Missed Chunks in Last SACK 5:10.0.2.2"  ETV
vector 1021  CAIN.eNodeB1.sctp  "Number of Gap Acked Chunks in Last SACK 5:10.0.4.1"  ETV
vector 1022  CAIN.eNodeB1.sctp  "Number of Non-Revokable Gap Acked Chunks in Last SACK 5:10.0.4.1"  ETV
vector 1023  CAIN.eNodeB1.sctp  "Number of Gap Missed Chunks in Last SACK 5:10.0.4.1"  ETV
vector 1075  CAIN.eNodeB1.sctp  "Number of Gap Acked Chunks in Last SACK 5:10.0.5.1"  ETV
vector 1076  CAIN.eNodeB1.sctp  "Number of Non-Revokable Gap Acked Chunks in Last SACK 5:10.0.5.1"  ETV
vector 1077  CAIN.eNodeB1.sctp  "Number of Gap Missed Chunks in Last SACK 5:10.0.5.1"  ETV
vector 881  CAIN.eNodeB1.sctp  "Arwnd in Last SACK 4"  ETV
vector 1084  CAIN.eNodeB1.sctp  "TSN PseudoCumAck 5:10.0.5.1"  ETV
vector 1085  CAIN.eNodeB1.sctp  "TSN RTXPseudoCumAck 5:10.0.5.1"  ETV
vector 1078  CAIN.eNodeB1.sctp  "Partial Bytes Acked 5:10.0.5.1"  ETV
vector 563  CAIN.ueD2DTx[11].nic.mac  sentPacketToUpperLayer:vector(packetBytes)  ETV
attr interpolationmode  none
attr source  sentPacketToUpperLayer
vector 658  CAIN.ueD2DTx[14].nic.mac  receivedPacketFromLowerLayer:vector(packetBytes)  ETV
attr interpolationmode  none
attr source  receivedPacketFromLowerLayer
vector 1573  CAIN.ueD2DTx[7].tcp  tcpRcvQueueBytes  ETV
vector 1560  CAIN.ueD2DTx[7].tcp  "advertised window"  ETV
vector 1559  CAIN.ueD2DTx[7].tcp  "receive window"  ETV
vector 1562  CAIN.ueD2DTx[7].tcp  "sent ack"  ETV
vector 429  CAIN.ueD2DTx[7].nic.pdcpRrc  receivedPacketFromUpperLayer:vector(packetBytes)  ETV
attr interpolationmode  none
attr source  receivedPacketFromUpperLayer
vector 432  CAIN.ueD2DTx[7].nic.pdcpRrc  sentPacketToLowerLayer:vector(packetBytes)  ETV
attr interpolationmode  none
attr source  sentPacketToLowerLayer
vector 433  CAIN.ueD2DTx[7].nic.mac  receivedPacketFromUpperLayer:vector(packetBytes)  ETV
attr interpolationmode  none
attr source  receivedPacketFromUpperLayer
vector 442  CAIN.ueD2DTx[7].nic.mac  CainMessageSent:vector  ETV
attr interpolationmode  none
attr title  "# of Sent CAIN message, vector"
vector 436  CAIN.ueD2DTx[7].nic.mac  sentPacketToLowerLayer:vector(packetBytes)  ETV
attr interpolationmode  none
attr source  sentPacketToLowerLayer
vector 659  CAIN.ueD2DTx[14].nic.mac  sentPacketToUpperLayer:vector(packetBytes)  ETV
attr interpolationmode  none
attr source  sentPacketToUpperLayer
vector 1597  CAIN.ueD2DTx[2].tcp  tcpRcvQueueBytes  ETV
vector 1584  CAIN.ueD2DTx[2].tcp  "advertised window"  ETV
vector 1583  CAIN.ueD2DTx[2].tcp  "receive window"  ETV
vector 1586  CAIN.ueD2DTx[2].tcp  "sent ack"  ETV
vector 269  CAIN.ueD2DTx[2].nic.pdcpRrc  receivedPacketFromUpperLayer:vector(packetBytes)  ETV
attr interpolationmode  none
attr source  receivedPacketFromUpperLayer
vector 272  CAIN.ueD2DTx[2].nic.pdcpRrc  sentPacketToLowerLayer:vector(packetBytes)  ETV
attr interpolationmode  none
attr source  sentPacketToLowerLayer
vector 273  CAIN.ueD2DTx[2].nic.mac  receivedPacketFromUpperLayer:vector(packetBytes)  ETV
attr interpolationmode  none
attr source  receivedPacketFromUpperLayer
vector 282  CAIN.ueD2DTx[2].nic.mac  CainMessageSent:vector  ETV
attr interpolationmode  none
attr title  "# of Sent CAIN message, vector"
vector 276  CAIN.ueD2DTx[2].nic.mac  sentPacketToLowerLayer:vector(packetBytes)  ETV
attr interpolationmode  none
attr source  sentPacketToLowerLayer
vector 154  CAIN.eNodeB1.nic.mac  receivedPacketFromLowerLayer:vector(packetBytes)  ETV
attr interpolationmode  none
attr source  receivedPacketFromLowerLayer
vector 1621  CAIN.ueD2DTx[1].tcp  tcpRcvQueueBytes  ETV
vector 1608  CAIN.ueD2DTx[1].tcp  "advertised window"  ETV
vector 1607  CAIN.ueD2DTx[1].tcp  "receive window"  ETV
vector 1610  CAIN.ueD2DTx[1].tcp  "sent ack"  ETV
vector 237  CAIN.ueD2DTx[1].nic.pdcpRrc  receivedPacketFromUpperLayer:vector(packetBytes)  ETV
attr interpolationmode  none
attr source  receivedPacketFromUpperLayer
vector 240  CAIN.ueD2DTx[1].nic.pdcpRrc  sentPacketToLowerLayer:vector(packetBytes)  ETV
attr interpolationmode  none
attr source  sentPacketToLowerLayer
vector 241  CAIN.ueD2DTx[1].nic.mac  receivedPacketFromUpperLayer:vector(packetBytes)  ETV
attr interpolationmode  none
attr source  receivedPacketFromUpperLayer
vector 250  CAIN.ueD2DTx[1].nic.mac  CainMessageSent:vector  ETV
attr interpolationmode  none
attr title  "# of Sent CAIN message, vector"
vector 244  CAIN.ueD2DTx[1].nic.mac  sentPacketToLowerLayer:vector(packetBytes)  ETV
attr interpolationmode  none
attr source  sentPacketToLowerLayer
vector 1645  CAIN.ueD2DTx[17].tcp  tcpRcvQueueBytes  ETV
vector 1632  CAIN.ueD2DTx[17].tcp  "advertised window"  ETV
vector 1631  CAIN.ueD2DTx[17].tcp  "receive window"  ETV
vector 1634  CAIN.ueD2DTx[17].tcp  "sent ack"  ETV
vector 749  CAIN.ueD2DTx[17].nic.pdcpRrc  receivedPacketFromUpperLayer:vector(packetBytes)  ETV
attr interpolationmode  none
attr source  receivedPacketFromUpperLayer
vector 752  CAIN.ueD2DTx[17].nic.pdcpRrc  sentPacketToLowerLayer:vector(packetBytes)  ETV
attr interpolationmode  none
attr source  sentPacketToLowerLayer
vector 753  CAIN.ueD2DTx[17].nic.mac  receivedPacketFromUpperLayer:vector(packetBytes)  ETV
attr interpolationmode  none
attr source  receivedPacketFromUpperLayer
vector 756  CAIN.ueD2DTx[17].nic.mac  sentPacketToLowerLayer:vector(packetBytes)  ETV
attr interpolationmode  none
attr source  sentPacketToLowerLayer
vector 1669  CAIN.ueD2DTx[6].tcp  tcpRcvQueueBytes  ETV
vector 1656  CAIN.ueD2DTx[6].tcp  "advertised window"  ETV
vector 1655  CAIN.ueD2DTx[6].tcp  "receive window"  ETV
vector 1658  CAIN.ueD2DTx[6].tcp  "sent ack"  ETV
vector 397  CAIN.ueD2DTx[6].nic.pdcpRrc  receivedPacketFromUpperLayer:vector(packetBytes)  ETV
attr interpolationmode  none
attr source  receivedPacketFromUpperLayer
vector 400  CAIN.ueD2DTx[6].nic.pdcpRrc  sentPacketToLowerLayer:vector(packetBytes)  ETV
attr interpolationmode  none
attr source  sentPacketToLowerLayer
vector 401  CAIN.ueD2DTx[6].nic.mac  receivedPacketFromUpperLayer:vector(packetBytes)  ETV
attr interpolationmode  none
attr source  receivedPacketFromUpperLayer
vector 410  CAIN.ueD2DTx[6].nic.mac  CainMessageSent:vector  ETV
attr interpolationmode  none
attr title  "# of Sent CAIN message, vector"
vector 404  CAIN.ueD2DTx[6].nic.mac  sentPacketToLowerLayer:vector(packetBytes)  ETV
attr interpolationmode  none
attr source  sentPacketToLowerLayer
vector 754  CAIN.ueD2DTx[17].nic.mac  receivedPacketFromLowerLayer:vector(packetBytes)  ETV
attr interpolationmode  none
attr source  receivedPacketFromLowerLayer
vector 755  CAIN.ueD2DTx[17].nic.mac  sentPacketToUpperLayer:vector(packetBytes)  ETV
attr interpolationmode  none
attr source  sentPacketToUpperLayer
vector 1693  CAIN.ueD2DTx[9].tcp  tcpRcvQueueBytes  ETV
vector 1680  CAIN.ueD2DTx[9].tcp  "advertised window"  ETV
vector 1679  CAIN.ueD2DTx[9].tcp  "receive window"  ETV
vector 1682  CAIN.ueD2DTx[9].tcp  "sent ack"  ETV
vector 493  CAIN.ueD2DTx[9].nic.pdcpRrc  receivedPacketFromUpperLayer:vector(packetBytes)  ETV
attr interpolationmode  none
attr source  receivedPacketFromUpperLayer
vector 496  CAIN.ueD2DTx[9].nic.pdcpRrc  sentPacketToLowerLayer:vector(packetBytes)  ETV
attr interpolationmode  none
attr source  sentPacketToLowerLayer
vector 497  CAIN.ueD2DTx[9].nic.mac  receivedPacketFromUpperLayer:vector(packetBytes)  ETV
attr interpolationmode  none
attr source  receivedPacketFromUpperLayer
vector 1717  CAIN.ueD2DTx[4].tcp  tcpRcvQueueBytes  ETV
vector 1704  CAIN.ueD2DTx[4].tcp  "advertised window"  ETV
vector 1703  CAIN.ueD2DTx[4].tcp  "receive window"  ETV
vector 1706  CAIN.ueD2DTx[4].tcp  "sent ack"  ETV
vector 333  CAIN.ueD2DTx[4].nic.pdcpRrc  receivedPacketFromUpperLayer:vector(packetBytes)  ETV
attr interpolationmode  none
attr source  receivedPacketFromUpperLayer
vector 336  CAIN.ueD2DTx[4].nic.pdcpRrc  sentPacketToLowerLayer:vector(packetBytes)  ETV
attr interpolationmode  none
attr source  sentPacketToLowerLayer
vector 337  CAIN.ueD2DTx[4].nic.mac  receivedPacketFromUpperLayer:vector(packetBytes)  ETV
attr interpolationmode  none
attr source  receivedPacketFromUpperLayer
vector 347  CAIN.ueD2DTx[4].nic.mac  CainHopMessageSent:vector  ETV
attr interpolationmode  none
attr title  "# of Sent CAIN hop message, vector"
vector 340  CAIN.ueD2DTx[4].nic.mac  sentPacketToLowerLayer:vector(packetBytes)  ETV
attr interpolationmode  none
attr source  sentPacketToLowerLayer
vector 1741  CAIN.ueD2DTx[0].tcp  tcpRcvQueueBytes  ETV
vector 1728  CAIN.ueD2DTx[0].tcp  "advertised window"  ETV
vector 1727  CAIN.ueD2DTx[0].tcp  "receive window"  ETV
vector 1730  CAIN.ueD2DTx[0].tcp  "sent ack"  ETV
vector 205  CAIN.ueD2DTx[0].nic.pdcpRrc  receivedPacketFromUpperLayer:vector(packetBytes)  ETV
attr interpolationmode  none
attr source  receivedPacketFromUpperLayer
vector 208  CAIN.ueD2DTx[0].nic.pdcpRrc  sentPacketToLowerLayer:vector(packetBytes)  ETV
attr interpolationmode  none
attr source  sentPacketToLowerLayer
vector 209  CAIN.ueD2DTx[0].nic.mac  receivedPacketFromUpperLayer:vector(packetBytes)  ETV
attr interpolationmode  none
attr source  receivedPacketFromUpperLayer
vector 1765  CAIN.ueD2DTx[15].tcp  tcpRcvQueueBytes  ETV
vector 1752  CAIN.ueD2DTx[15].tcp  "advertised window"  ETV
vector 1751  CAIN.ueD2DTx[15].tcp  "receive window"  ETV
vector 1754  CAIN.ueD2DTx[15].tcp  "sent ack"  ETV
vector 685  CAIN.ueD2DTx[15].nic.pdcpRrc  receivedPacketFromUpperLayer:vector(packetBytes)  ETV
attr interpolationmode  none
attr source  receivedPacketFromUpperLayer
vector 688  CAIN.ueD2DTx[15].nic.pdcpRrc  sentPacketToLowerLayer:vector(packetBytes)  ETV
attr interpolationmode  none
attr source  sentPacketToLowerLayer
vector 689  CAIN.ueD2DTx[15].nic.mac  receivedPacketFromUpperLayer:vector(packetBytes)  ETV
attr interpolationmode  none
attr source  receivedPacketFromUpperLayer
vector 698  CAIN.ueD2DTx[15].nic.mac  CainMessageSent:vector  ETV
attr interpolationmode  none
attr title  "# of Sent CAIN message, vector"
vector 1789  CAIN.ueD2DTx[18].tcp  tcpRcvQueueBytes  ETV
vector 1776  CAIN.ueD2DTx[18].tcp  "advertised window"  ETV
vector 1775  CAIN.ueD2DTx[18].tcp  "receive window"  ETV
vector 1778  CAIN.ueD2DTx[18].tcp  "sent ack"  ETV
vector 781  CAIN.ueD2DTx[18].nic.pdcpRrc  receivedPacketFromUpperLayer:vector(packetBytes)  ETV
attr interpolationmode  none
attr source  receivedPacketFromUpperLayer
vector 784  CAIN.ueD2DTx[18].nic.pdcpRrc  sentPacketToLowerLayer:vector(packetBytes)  ETV
attr interpolationmode  none
attr source  sentPacketToLowerLayer
vector 785  CAIN.ueD2DTx[18].nic.mac  receivedPacketFromUpperLayer:vector(packetBytes)  ETV
attr interpolationmode  none
attr source  receivedPacketFromUpperLayer
vector 108  CAIN.eNodeB.nic.mac  ServedDevs:vector  ETV
attr interpolationmode  none
attr title  "# of devices served on cain forwarding, vector"
vector 787  CAIN.ueD2DTx[18].nic.mac  sentPacketToUpperLayer:vector(packetBytes)  ETV
attr interpolationmode  none
attr source  sentPacketToUpperLayer
vector 262  CAIN.ueD2DTx[1].nic.phy  averageCqiD2Dvect:vector  ETV
attr source  averageCqiD2Dvect
attr title  "Average Cqi reported in D2D, vector"
attr unit  cqi
vector 242  CAIN.ueD2DTx[1].nic.mac  receivedPacketFromLowerLayer:vector(packetBytes)  ETV
attr interpolationmode  none
attr source  receivedPacketFromLowerLayer
vector 243  CAIN.ueD2DTx[1].nic.mac  sentPacketToUpperLayer:vector(packetBytes)  ETV
attr interpolationmode  none
attr source  sentPacketToUpperLayer
vector 238  CAIN.ueD2DTx[1].nic.pdcpRrc  receivedPacketFromLowerLayer:vector(packetBytes)  ETV
attr interpolationmode  none
attr source  receivedPacketFromLowerLayer
vector 239  CAIN.ueD2DTx[1].nic.pdcpRrc  sentPacketToUpperLayer:vector(packetBytes)  ETV
attr interpolationmode  none
attr source  sentPacketToUpperLayer
vector 507  CAIN.ueD2DTx[9].nic.mac  CainHopMessageSent:vector  ETV
attr interpolationmode  none
attr title  "# of Sent CAIN hop message, vector"
vector 500  CAIN.ueD2DTx[9].nic.mac  sentPacketToLowerLayer:vector(packetBytes)  ETV
attr interpolationmode  none
attr source  sentPacketToLowerLayer
1108	50788 24 150 150 0.0000001228 0.0000001228 1 0 0 0 0
1219	50812 28 235 235 0.0000006304 0.0000006304 1 65535 65535 65535 4294836225
1220	50840 27 235 235 0.0000006304 0.0000006304 1 8940 8940 8940 79923600
1221	50867 29 235 235 0.0000006304 0.0000006304 1 0.3725 0.3725 0.3725 0.13875625
1217	50896 24 235 235 0.0000006304 0.0000006304 1 3 3 3 9
1224	50920 24 235 235 0.0000006304 0.0000006304 1 1 1 1 1
1236	50944 24 163 163 0.0000003096 0.0000003096 1 0 0 0 0
1192	50968 28 235 235 0.0000006304 0.0000006304 1 65535 65535 65535 4294836225
1193	50996 27 235 235 0.0000006304 0.0000006304 1 8940 8940 8940 79923600
1194	51023 29 235 235 0.0000006304 0.0000006304 1 0.3725 0.3725 0.3725 0.13875625
1190	51052 24 235 235 0.0000006304 0.0000006304 1 3 3 3 9
1197	51076 24 235 235 0.0000006304 0.0000006304 1 1 1 1 1
1209	51100 24 163 163 0.0000003096 0.0000003096 1 0 0 0 0
910	51124 27 235 235 0.0000006304 0.0000006304 1 65535 65535 65535 4294836225
911	51151 26 235 235 0.0000006304 0.0000006304 1 8940 8940 8940 79923600
912	51177 28 235 235 0.0000006304 0.0000006304 1 0.3725 0.3725 0.3725 0.13875625
908	51205 46 235 302 0.0000006304 0.0000008564 2 1 3 4 10
909	51251 30 302 302 0.0000008564 0.0000008564 1 2.26e-07 2.26e-07 2.26e-07 5.1076e-14
914	51281 753 3427 16467 0.0570000972 0.2570008636 27 2000 2026 54351 109410201
917	52034 44 207 221 0.000000552 0.000000596 2 1 2 3 5
916	52078 44 207 221 0.000000552 0.000000596 2 1 2 3 5
918	52122 46 302 308 0.0000008564 0.0000009004 2 1 2 3 5
927	52168 12 131 131 0 0 1 0 0 0 0
886	52180 86 3427 29157 0.0570000972 0.4570008636 3 65533 65535 196603 12884246539
890	52266 747 3427 29157 0.0570000972 0.4570008636 30 0 48 56 2328
895	53013 74 3427 29157 0.0570000972 0.4570008636 3 0 0 0 0
896	53087 74 3427 29157 0.0570000972 0.4570008636 3 0 0 0 0
897	53161 74 3427 29157 0.0570000972 0.4570008636 3 0 0 0 0
898	53235 74 3427 29157 0.0570000972 0.4570008636 3 0 0 0 0
899	53309 74 3427 29157 0.0570000972 0.4570008636 3 0 0 0 0
900	53383 74 3427 29157 0.0570000972 0.4570008636 3 0 0 0 0
901	53457 74 3427 29157 0.0570000972 0.4570008636 3 0 0 0 0
902	53531 77 3427 29157 0.0570000972 0.4570008636 3 16 16 48 768
904	53608 27 163 163 0.0000003096 0.0000003096 1 65535 65535 65535 4294836225
906	53635 887 3430 16492 0.0570000972 0.2570008636 27 9.72e-08 4.652e-07 1.14884e-05 5.22894128e-12
907	54522 12 131 131 0 0 1 0 0 0 0
1138	54534 27 178 178 0.000000458 0.000000458 1 65535 65535 65535 4294836225
1139	54561 26 178 178 0.000000458 0.000000458 1 8940 8940 8940 79923600
1140	54587 28 178 178 0.000000458 0.000000458 1 0.3725 0.3725 0.3725 0.13875625
1136	54615 23 178 178 0.000000458 0.000000458 1 3 3 3 9
1143	54638 23 178 178 0.000000458 0.000000458 1 1 1 1 1
1151	54661 76 638 26020 0.0070001912 0.4070009576 3 0 0 0 0
1152	54737 76 638 26020 0.0070001912 0.4070009576 3 0 0 0 0
1153	54813 76 638 26020 0.0070001912 0.4070009576 3 0 0 0 0
1155	54889 24 150 150 0.0000001228 0.0000001228 1 0 0 0 0
1111	54913 27 178 178 0.000000458 0.000000458 1 65535 65535 65535 4294836225
1112	54940 26 178 178 0.000000458 0.000000458 1 8940 8940 8940 79923600
1113	54966 28 178 178 0.000000458 0.000000458 1 0.3725 0.3725 0.3725 0.13875625
1109	54994 23 178 178 0.000000458 0.000000458 1 3 3 3 9
1116	55017 23 178 178 0.000000458 0.000000458 1 1 1 1 1
1124	55040 76 638 26020 0.0070001912 0.4070009576 3 0 0 0 0
1125	55116 76 638 26020 0.0070001912 0.4070009576 3 0 0 0 0
1126	55192 76 638 26020 0.0070001912 0.4070009576 3 0 0 0 0
1128	55268 24 150 150 0.0000001228 0.0000001228 1 0 0 0 0
1165	55292 57 178 76250 0.000000458 1.2070003984 2 65535 65535 131070 8589672450
1166	55349 55 178 76250 0.000000458 1.2070003984 2 8940 8940 17880 159847200
1167	55404 58 178 76250 0.000000458 1.2070003984 2 0.3725 23.84 24.2125 568.48435625
1163	55462 123 178 26020 0.000000458 0.4070009576 5 1 3 7 13
1164	55585 138 255 26020 0.0000006744 0.4070009576 4 1.912e-07 0.2000005592 0.400001174 0.080000306560439
1168	55723 770 591 13229 0.007 0.2070003984 27 2000 2026 54351 109410201
1172	56493 48 273 287 0.0000007624 0.0000008064 2 1 2 3 5
1171	56541 48 273 287 0.0000007624 0.0000008064 2 1 2 3 5
1173	56589 48 255 265 0.0000006744 0.0000007184 2 1 2 3 5
1174	56637 1428 591 26020 0.007 0.4070009576 54 0 48 1162 36924
1175	58065 1428 591 26020 0.007 0.4070009576 54 0 48 1162 36924
1178	59493 76 638 26020 0.0070001912 0.4070009576 3 0 0 0 0
1179	59569 76 638 26020 0.0070001912 0.4070009576 3 0 0 0 0
1180	59645 76 638 26020 0.0070001912 0.4070009576 3 0 0 0 0
1181	59721 76 638 26020 0.0070001912 0.4070009576 3 0 0 0 0
1182	59797 24 150 150 0.0000001228 0.0000001228 1 0 0 0 0
1185	59821 85 638 26020 0.0070001912 0.4070009576 3 2000 2026 6028 12112680
1187	59906 76 638 26020 0.0070001912 0.4070009576 3 0 0 0 0
1188	59982 76 638 26020 0.0070001912 0.4070009576 3 0 0 0 0
1304	60058 76 638 26020 0.0070001912 0.4070009576 3 0 0 0 0
1305	60134 1198 591 13229 0.007 0.2070003984 54 0 24 581 9231
848	61332 1374 591 26020 0.007 0.4070009576 54 0 48 1162 36924
847	62706 1374 591 26020 0.007 0.4070009576 54 0 48 1162 36924
849	64080 73 638 26020 0.0070001912 0.4070009576 3 0 0 0 0
850	64153 73 638 26020 0.0070001912 0.4070009576 3 0 0 0 0
859	64226 85 638 26020 0.0070001912 0.4070009576 3 65533 65535 196603 12884246539
860	64311 112 150 26020 0.0000001228 0.4070009576 4 65533 65535 262138 17179082764
863	64423 12 123 123 0 0 1 0 0 0 0
1005	64435 24 149 149 0.0000001228 0.0000001228 1 0 0 0 0
1273	64459 28 236 236 0.0000006304 0.0000006304 1 65535 65535 65535 4294836225
1274	64487 27 236 236 0.0000006304 0.0000006304 1 8940 8940 8940 79923600
1275	64514 29 236 236 0.0000006304 0.0000006304 1 0.3725 0.3725 0.3725 0.13875625
1271	64543 24 236 236 0.0000006304 0.0000006304 1 3 3 3 9
1278	64567 24 236 236 0.0000006304 0.0000006304 1 1 1 1 1
1290	64591 24 164 164 0.0000003096 0.0000003096 1 0 0 0 0
1246	64615 28 236 236 0.0000006304 0.0000006304 1 65535 65535 65535 4294836225
1247	64643 27 236 236 0.0000006304 0.0000006304 1 8940 8940 8940 79923600
1248	64670 29 236 236 0.0000006304 0.0000006304 1 0.3725 0.3725 0.3725 0.13875625
1244	64699 24 236 236 0.0000006304 0.0000006304 1 3 3 3 9
1251	64723 24 236 236 0.0000006304 0.0000006304 1 1 1 1 1
1263	64747 24 164 164 0.0000003096 0.0000003096 1 0 0 0 0
959	64771 27 236 236 0.0000006304 0.0000006304 1 65535 65535 65535 4294836225
960	64798 26 236 236 0.0000006304 0.0000006304 1 8940 8940 8940 79923600
961	64824 28 236 236 0.0000006304 0.0000006304 1 0.3725 0.3725 0.3725 0.13875625
957	64852 46 236 301 0.0000006304 0.0000008564 2 1 3 4 10
958	64898 30 301 301 0.0000008564 0.0000008564 1 2.26e-07 2.26e-07 2.26e-07 5.1076e-14
963	64928 750 626 13236 0.0070000972 0.2070008636 27 2000 2026 54351 109410201
966	65678 44 208 222 0.000000552 0.000000596 2 1 2 3 5
965	65722 44 208 222 0.000000552 0.000000596 2 1 2 3 5
967	65766 46 301 307 0.0000008564 0.0000009004 2 1 2 3 5
976	65812 12 132 132 0 0 1 0 0 0 0
935	65824 85 626 26013 0.0070000972 0.4070008636 3 65533 65535 196603 12884246539
939	65909 743 626 26013 0.0070000972 0.4070008636 30 0 48 56 2328
944	66652 73 626 26013 0.0070000972 0.4070008636 3 0 0 0 0
945	66725 73 626 26013 0.0070000972 0.4070008636 3 0 0 0 0
946	66798 73 626 26013 0.0070000972 0.4070008636 3 0 0 0 0
947	66871 73 626 26013 0.0070000972 0.4070008636 3 0 0 0 0
948	66944 73 626 26013 0.0070000972 0.4070008636 3 0 0 0 0
949	67017 73 626 26013 0.0070000972 0.4070008636 3 0 0 0 0
950	67090 73 626 26013 0.0070000972 0.4070008636 3 0 0 0 0
951	67163 76 626 26013 0.0070000972 0.4070008636 3 16 16 48 768
953	67239 27 164 164 0.0000003096 0.0000003096 1 65535 65535 65535 4294836225
955	67266 884 629 13261 0.0070000972 0.2070008636 27 9.72e-08 4.652e-07 1.14884e-05 5.22894128e-12
956	68150 12 132 132 0 0 1 0 0 0 0
1035	68162 27 177 177 0.000000458 0.000000458 1 65535 65535 65535 4294836225
1036	68189 26 177 177 0.000000458 0.000000458 1 8940 8940 8940 79923600
1037	68215 28 177 177 0.000000458 0.000000458 1 0.3725 0.3725 0.3725 0.13875625
1033	68243 23 177 177 0.000000458 0.000000458 1 3 3 3 9
1040	68266 23 177 177 0.000000458 0.000000458 1 1 1 1 1
1048	68289 77 3439 29164 0.0570001912 0.4570009576 3 0 0 0 0
1049	68366 77 3439 29164 0.0570001912 0.4570009576 3 0 0 0 0
1050	68443 77 3439 29164 0.0570001912 0.4570009576 3 0 0 0 0
1052	68520 24 149 149 0.0000001228 0.0000001228 1 0 0 0 0
1008	68544 27 177 177 0.000000458 0.000000458 1 65535 65535 65535 4294836225
1009	68571 26 177 177 0.000000458 0.000000458 1 8940 8940 8940 79923600
1010	68597 28 177 177 0.000000458 0.000000458 1 0.3725 0.3725 0.3725 0.13875625
1006	68625 23 177 177 0.000000458 0.000000458 1 3 3 3 9
1013	68648 23 177 177 0.000000458 0.000000458 1 1 1 1 1
1021	68671 77 3439 29164 0.0570001912 0.4570009576 3 0 0 0 0
1022	68748 77 3439 29164 0.0570001912 0.4570009576 3 0 0 0 0
1023	68825 77 3439 29164 0.0570001912 0.4570009576 3 0 0 0 0
1025	68902 24 149 149 0.0000001228 0.0000001228 1 0 0 0 0
1062	68926 57 177 79404 0.000000458 1.2570003984 2 65535 65535 131070 8589672450
1063	68983 55 177 79404 0.000000458 1.2570003984 2 8940 8940 17880 159847200
1064	69038 58 177 79404 0.000000458 1.2570003984 2 0.3725 23.84 24.2125 568.48435625
1060	69096 124 177 29164 0.000000458 0.4570009576 5 1 3 7 13
1061	69220 139 256 29164 0.0000006744 0.4570009576 4 1.912e-07 0.2000005592 0.400001174 0.080000306560439
1065	69359 773 3367 16460 0.057 0.2570003984 27 2000 2026 54351 109410201
1069	70132 48 274 288 0.0000007624 0.0000008064 2 1 2 3 5
1068	70180 48 274 288 0.0000007624 0.0000008064 2 1 2 3 5
1070	70228 48 256 266 0.0000006744 0.0000007184 2 1 2 3 5
1071	70276 1432 3367 29164 0.057 0.4570009576 54 0 48 1162 36924
1072	71708 1432 3367 29164 0.057 0.4570009576 54 0 48 1162 36924
1075	73140 77 3439 29164 0.0570001912 0.4570009576 3 0 0 0 0
1076	73217 77 3439 29164 0.0570001912 0.4570009576 3 0 0 0 0
1077	73294 77 3439 29164 0.0570001912 0.4570009576 3 0 0 0 0
1078	73371 77 3439 29164 0.0570001912 0.4570009576 3 0 0 0 0
1079	73448 24 149 149 0.0000001228 0.0000001228 1 0 0 0 0
1082	73472 86 3439 29164 0.0570001912 0.4570009576 3 2000 2026 6028 12112680
1084	73558 77 3439 29164 0.0570001912 0.4570009576 3 0 0 0 0
1085	73635 77 3439 29164 0.0570001912 0.4570009576 3 0 0 0 0
1300	73712 77 3439 29164 0.0570001912 0.4570009576 3 0 0 0 0
1301	73789 1207 3367 16460 0.057 0.2570003984 54 0 24 581 9231
870	74996 1378 3367 29164 0.057 0.4570009576 54 0 48 1162 36924
869	76374 1378 3367 29164 0.057 0.4570009576 54 0 48 1162 36924
871	77752 74 3439 29164 0.0570001912 0.4570009576 3 0 0 0 0
872	77826 74 3439 29164 0.0570001912 0.4570009576 3 0 0 0 0
881	77900 86 3439 29164 0.0570001912 0.4570009576 3 65533 65535 196603 12884246539
882	77986 113 149 29164 0.0000001228 0.4570009576 4 65533 65535 262138 17179082764
885	78099 12 128 128 0 0 1 0 0 0 0
8	78111 8 0 0 0 0 1 0 0 0 0
9	78119 8 0 0 0 0 1 0 0 0 0
24	78127 9 0 0 0 0 1 0 0 0 0
25	78136 9 0 0 0 0 1 0 0 0 0
35	78145 9 0 0 0 0 1 0 0 0 0
36	78154 9 0 0 0 0 1 0 0 0 0
56	78163 9 0 0 0 0 1 0 0 0 0
57	78172 9 0 0 0 0 1 0 0 0 0
67	78181 9 0 0 0 0 1 0 0 0 0
68	78190 9 0 0 0 0 1 0 0 0 0
78	78199 9 0 0 0 0 1 0 0 0 0
79	78208 9 0 0 0 0 1 0 0 0 0
91	78217 437 1942 627323 0.034 9.095 24 44 44 1056 46464
92	78654 437 1937 627318 0.034 9.095 24 45 45 1080 48600
93	79091 437 1937 627318 0.034 9.095 24 44 44 1056 46464
94	79528 437 1942 627323 0.034 9.095 24 45 45 1080 48600
95	79965 877 1945 627407 0.034 9.096 48 45 47 2208 101616
96	80842 1215488 382 692401 0.002 10 68615 0 0 0 0
97	1296330 1015 1933 627401 0.034 9.096 57 0 47 1146 46050
98	1297345 363169 1281 692318 0.021 9.999 20332 0 0 0 0
99	1660514 1303 1591 627401 0.028 9.096 75 0 18 231 2847
100	1661817 261271 1623 692309 0.028 9.999 11927 1 11927 71132628 565622946980
101	1923088 177614 1555 692318 0.026 9.999 8154 1 8154 33247935 180746857305
106	2100702 834499 1555 692401 0.026 10 40126 479 645 22010098 12328430206
108	2935201 221938 5590 692396 0.088 10 11897 6 6 71382 428292
109	3157139 160306 1932 692401 0.033 10 8148 2 10 80213 790937
111	3317445 904775 1281 692401 0.021 10 40177 1 40177 807115753 21618595444105
112	4222220 835527 1281 692401 0.021 10 40177 226 320 11006924 3095585882
113	5057747 755173 1281 692401 0.021 10 40177 0 0 0 0
115	5812920 1295 1460 627229 0.025 9.093 71 2 6 211 785
120	5814215 10 0 0 0 0 1 0 0 0 0
121	5814225 10 0 0 0 0 1 0 0 0 0
128	5814235 419 139 29159 0 0.4570008636 18 36 512 1564 344080
130	5814654 438 139 29159 0 0.4570008636 18 0 8.8e-08 3.088e-07 1.946112e-14
131	5815092 280 0 258 0 0.0000007124 13 0 2 10 14
132	5815372 828 0 29161 0 0.4570009076 37 0 1 18 18
133	5816200 421 141 29160 0 0.4570008636 18 43 519 1690 366858
134	5816621 440 146 26018 0.0000001228 0.4070009576 18 43 519 1690 366858
137	5817061 421 141 29160 0 0.4570008636 18 36 512 1564 344080
138	5817482 440 146 26018 0.0000001228 0.4070009576 18 36 512 1564 344080
141	5817922 672 3432 16539 0.0570000972 0.2570008636 27 2 2 54 108
154	5818594 92529 3760 692216 0.062 9.998 4971 0 0 0 0
178	5911123 10 0 0 0 0 1 0 0 0 0
179	5911133 10 0 0 0 0 1 0 0 0 0
186	5911143 420 140 26015 0 0.4070008636 18 36 512 1564 344080
188	5911563 439 140 26015 0 0.4070008636 18 0 8.8e-08 3.088e-07 1.946112e-14
189	5912002 280 0 257 0 0.0000007124 13 0 2 10 14
190	5912282 830 0 26017 0 0.4070009076 37 0 1 18 18
191	5913112 422 142 26016 0 0.4070008636 18 43 519 1690 366858
192	5913534 439 145 29162 0.0000001228 0.4570009576 18 43 519 1690 366858
195	5913973 422 142 26016 0 0.4070008636 18 36 512 1564 344080
196	5914395 439 145 29162 0.0000001228 0.4570009576 18 36 512 1564 344080
199	5914834 669 631 13308 0.0070000972 0.2070008636 27 2 2 54 108
205	5915503 82 5149 626344 0.08215464002 9.08215464002 3 44 44 132 5808
206	5915585 458 2270 627754 0.039 9.1 24 45 45 1080 48600
207	5916043 458 2270 627754 0.039 9.1 24 44 44 1056 46464
208	5916501 82 5149 626344 0.08215464002 9.08215464002 3 45 45 135 6075
209	5916583 140 5152 627198 0.08215464002 9.093 6 45 47 276 12702
210	5916723 372262 1585 692391 0.027 10 19881 0 0 0 0
211	6288985 513 2266 627750 0.039 9.1 27 0 47 1128 53016
212	6289498 371549 1585 692391 0.027 10 19840 0 0 0 0
216	6661047 511 1674 5357 0.029 0.085 29 1 29 435 8555
228	6661558 456 2079 627534 0.036 9.097 25 2 2 50 100
231	6662014 10 0 0 0 0 1 1 1 1 1
237	6662024 85 4035 625022 0.066956260251 9.066956260251 3 44 44 132 5808
238	6662109 58 6185 627494 0.097 9.097 3 45 45 135 6075
239	6662167 58 6185 627494 0.097 9.097 3 44 44 132 5808
240	6662225 85 4035 625022 0.066956260251 9.066956260251 3 45 45 135 6075
241	6662310 85 4038 625025 0.066956260251 9.066956260251 3 45 45 135 6075
242	6662395 55 6007 627293 0.094 9.094 3 0 0 0 0
243	6662450 58 6180 627489 0.097 9.097 3 47 47 141 6627
244	6662508 37486 4064 692105 0.067 9.997 1990 0 0 0 0
250	6699994 42285 4064 692105 0.067 9.997 1987 1 1987 1975078 2616978350
262	6742279 58 6006 627292 0.094 9.094 3 10 10 30 300
263	6742337 10 0 0 0 0 1 1 1 1 1
269	6742347 85 3621 624496 0.060918334927 9.060918334927 3 44 44 132 5808
272	6742432 85 3621 624496 0.060918334927 9.060918334927 3 45 45 135 6075
273	6742517 85 3624 624499 0.060918334927 9.060918334927 3 45 45 135 6075
276	6742602 37446 3662 692032 0.061 9.996 1988 0 0 0 0
282	6780048 42303 3662 692032 0.061 9.996 1988 1 1988 1977066 2620930494
295	6822351 10 0 0 0 0 1 1 1 1 1
301	6822361 85 1469 621613 0.025952952534 9.025952952534 3 44 44 132 5808
304	6822446 85 1469 621613 0.025952952534 9.025952952534 3 45 45 135 6075
305	6822531 85 1472 621616 0.025952952534 9.025952952534 3 45 45 135 6075
308	6822616 37565 1478 692034 0.026 9.996 1995 0 0 0 0
314	6860181 42443 1478 692034 0.026 9.996 1995 1 1995 1991010 2648706970
327	6902624 10 0 0 0 0 1 1 1 1 1
333	6902634 82 4674 625821 0.07505697578 9.07505697578 3 44 44 132 5808
336	6902716 82 4674 625821 0.07505697578 9.07505697578 3 45 45 135 6075
337	6902798 82 4677 625824 0.07505697578 9.07505697578 3 45 45 135 6075
340	6902880 37395 4699 692036 0.076 9.996 1985 0 0 0 0
347	6940275 42243 4699 692036 0.076 9.996 1985 1 1985 1971105 2609085985
359	6982518 10 0 0 0 0 1 1 1 1 1
365	6982528 85 2163 622596 0.037729873816 9.037729873816 3 44 44 132 5808
368	6982613 85 2163 622596 0.037729873816 9.037729873816 3 45 45 135 6075
369	6982698 85 2166 622599 0.037729873816 9.037729873816 3 45 45 135 6075
372	6982783 37533 2174 692166 0.038 9.998 1993 0 0 0 0
379	7020316 42405 2174 692166 0.038 9.998 1993 1 1993 1987021 2640750909
391	7062721 10 0 0 0 0 1 1 1 1 1
397	7062731 85 4270 625314 0.069116189484 9.069116189484 3 44 44 132 5808
400	7062816 85 4270 625314 0.069116189484 9.069116189484 3 45 45 135 6075
401	7062901 85 4273 625317 0.069116189484 9.069116189484 3 45 45 135 6075
404	7062986 36318 4295 692355 0.07 10 1987 0 0 0 0
410	7099304 41172 4295 692355 0.07 10 1987 1 1987 1975078 2616978350
423	7140476 10 0 0 0 0 1 1 1 1 1
429	7140486 85 3509 624342 0.058808041334 9.058808041334 3 44 44 132 5808
432	7140571 85 3509 624342 0.058808041334 9.058808041334 3 45 45 135 6075
433	7140656 85 3512 624345 0.058808041334 9.058808041334 3 45 45 135 6075
436	7140741 37465 3522 692282 0.059 9.999 1989 0 0 0 0
442	7178206 42325 3522 692282 0.059 9.999 1989 1 1989 1979055 2624886615
455	7220531 10 0 0 0 0 1 1 1 1 1
461	7220541 82 3113 623903 0.05394782705 9.05394782705 3 44 44 132 5808
464	7220623 82 3113 623903 0.05394782705 9.05394782705 3 45 45 135 6075
465	7220705 82 3116 623906 0.05394782705 9.05394782705 3 45 45 135 6075
468	7220787 26427 3148 692284 0.054 9.999 1391 0 0 0 0
475	7247214 29493 3148 692284 0.054 9.999 1391 1 1391 968136 898107496
487	7276707 163 0 6762 0 0.105 10 1 2 19 37
493	7276870 85 4615 625749 0.074373740533 9.074373740533 3 44 44 132 5808
496	7276955 85 4615 625749 0.074373740533 9.074373740533 3 45 45 135 6075
497	7277040 85 4618 625752 0.074373740533 9.074373740533 3 45 45 135 6075
500	7277125 25558 194306 692359 3.075 10 1386 0 0 0 0
507	7302683 28609 194306 692359 3.075 10 1386 1 1386 961191 888460881
519	7331292 163 0 6763 0 0.105 10 1 2 19 37
525	7331455 85 1316 621389 0.022555459228 9.022555459228 3 44 44 132 5808
528	7331540 85 1316 621389 0.022555459228 9.022555459228 3 45 45 135 6075
529	7331625 85 1319 621392 0.022555459228 9.022555459228 3 45 45 135 6075
532	7331710 26643 1332 692172 0.023 9.998 1403 0 0 0 0
539	7358353 29745 1332 692172 0.023 9.998 1403 1 1403 984906 921543714
551	7388098 163 0 6764 0 0.105 10 1 2 19 37
557	7388261 85 3105 623896 0.053440309435 9.053440309435 3 44 44 132 5808
560	7388346 85 3105 623896 0.053440309435 9.053440309435 3 45 45 135 6075
561	7388431 253 3108 624818 0.053440309435 9.064 12 0 47 276 12702
562	7388684 74161 3351 692382 0.056 10 3996 0 0 0 0
563	7462845 165 3472 624814 0.058 9.064 9 0 0 0 0
564	7463010 73905 3152 692382 0.054 10 3982 0 0 0 0
583	7536915 10 0 0 0 0 1 1 1 1 1
589	7536925 85 1172 621152 0.019660798032 9.019660798032 3 44 44 132 5808
592	7537010 85 1172 621152 0.019660798032 9.019660798032 3 45 45 135 6075
593	7537095 250 1175 621964 0.019660798032 9.03 12 0 47 276 12702
594	7537345 1586 1311 627799 0.022 9.1 87 0 0 0 0
595	7538931 162 1383 621960 0.024 9.03 9 0 0 0 0
596	7539093 1360 1190 627799 0.02 9.1 75 0 0 0 0
615	7540453 10 0 0 0 0 1 1 1 1 1
621	7540463 85 2699 623336 0.046595396413 9.046595396413 3 44 44 132 5808
624	7540548 85 2699 623336 0.046595396413 9.046595396413 3 45 45 135 6075
625	7540633 259 2702 624221 0.046595396413 9.057 12 15 45 288 8748
626	7540892 492 2889 624689 0.049 9.062 27 0 0 0 0
627	7541384 165 2993 624217 0.051 9.057 9 0 0 0 0
628	7541549 275 2737 624232 0.047 9.057 15 0 0 0 0
647	7541824 10 0 0 0 0 1 1 1 1 1
653	7541834 85 3253 624072 0.055913616046 9.055913616046 3 44 44 132 5808
656	7541919 85 3253 624072 0.055913616046 9.055913616046 3 45 45 135 6075
657	7542004 250 3256 624980 0.055913616046 9.066 12 0 47 276 12702
658	7542254 489 3497 625431 0.058 9.071 27 0 0 0 0
659	7542743 162 3592 624976 0.06 9.066 9 0 0 0 0
660	7542905 272 3279 624990 0.056 9.066 15 0 0 0 0
679	7543177 10 0 0 0 0 1 1 1 1 1
685	7543187 85 5219 626425 0.083428886256 9.083428886256 3 44 44 132 5808
688	7543272 85 5219 626425 0.083428886256 9.083428886256 3 45 45 135 6075
689	7543357 85 5222 626428 0.083428886256 9.083428886256 3 45 45 135 6075
690	7543442 152106 1402 692379 0.024 10 8080 0 0 0 0
692	7695548 189486 1402 692379 0.024 10 10064 0 0 0 0
698	7885034 42225 5265 692292 0.084 9.999 1984 1 1984 1969120 2605145760
711	7927259 10 0 0 0 0 1 1 1 1 1
717	7927269 85 1888 622208 0.032752273618 9.032752273618 3 44 44 132 5808
720	7927354 85 1888 622208 0.032752273618 9.032752273618 3 45 45 135 6075
721	7927439 253 1891 623060 0.032752273618 9.043 12 0 47 276 12702
722	7927692 752 2028 623743 0.035 9.051 41 0 0 0 0
723	7928444 165 2137 623056 0.037 9.043 9 0 0 0 0
724	7928609 535 1913 623743 0.033 9.051 29 0 0 0 0
743	7929144 10 0 0 0 0 1 1 1 1 1
749	7929154 85 4207 625242 0.068834142487 9.068834142487 3 44 44 132 5808
752	7929239 85 4207 625242 0.068834142487 9.068834142487 3 45 45 135 6075
753	7929324 253 4210 626078 0.068834142487 9.079 12 0 47 276 12702
754	7929577 1298 4375 626751 0.071 9.087 70 0 0 0 0
755	7930875 165 4486 626074 0.073 9.079 9 0 0 0 0
756	7931040 1078 4245 626751 0.069 9.087 58 0 0 0 0
775	7932118 10 0 0 0 0 1 1 1 1 1
781	7932128 85 5467 626710 0.086610205313 9.086610205313 3 44 44 132 5808
784	7932213 85 5467 626710 0.086610205313 9.086610205313 3 45 45 135 6075
785	7932298 143 5470 627035 0.086610205313 9.091 6 45 47 276 12702
786	7932441 968 2341 627707 0.04 9.099 53 0 0 0 0
787	7933409 55 5764 627031 0.091 9.091 3 0 0 0 0
788	7933464 793 2341 627707 0.04 9.099 43 0 0 0 0
793	7934257 68 2458 2759 0.042 0.047 4 1 4 10 30
807	7934325 10 0 0 0 0 1 1 1 1 1
813	7934335 85 1629 621855 0.028524626123 9.028524626123 3 44 44 132 5808
816	7934420 85 1629 621855 0.028524626123 9.028524626123 3 45 45 135 6075
817	7934505 201 1632 622628 0.028524626123 9.038 9 23 45 282 9690
818	7934706 305639 1463 692398 0.025 10 16315 0 0 0 0
819	8240345 110 1917 622624 0.033 9.038 6 0 0 0 0
820	8240455 305402 1463 692398 0.025 10 16302 0 0 0 0
825	8545857 17 1590 1590 0.027 0.027 1 1 1 1 1
839	8545874 10 0 0 0 0 1 1 1 1 1
1319	8545884 94 1169 621149 0.019660798032 9.019660798032 3 7504 7504 22512 168930048
1320	8545978 94 1169 621149 0.019660798032 9.019660798032 3 7504 7504 22512 168930048
1322	8546072 85 1169 621149 0.019660798032 9.019660798032 3 0 0 0 0
1333	8546157 85 1169 621149 0.019660798032 9.019660798032 3 0 0 0 0
1343	8546242 94 1313 621386 0.022555459228 9.022555459228 3 7504 7504 22512 168930048
1344	8546336 94 1313 621386 0.022555459228 9.022555459228 3 7504 7504 22512 168930048
1346	8546430 85 1313 621386 0.022555459228 9.022555459228 3 0 0 0 0
1357	8546515 85 1313 621386 0.022555459228 9.022555459228 3 0 0 0 0
1367	8546600 94 1466 621610 0.025952952534 9.025952952534 3 7504 7504 22512 168930048
1368	8546694 94 1466 621610 0.025952952534 9.025952952534 3 7504 7504 22512 168930048
1370	8546788 85 1466 621610 0.025952952534 9.025952952534 3 0 0 0 0
1381	8546873 85 1466 621610 0.025952952534 9.025952952534 3 0 0 0 0
1391	8546958 94 1626 621852 0.028524626123 9.028524626123 3 7504 7504 22512 168930048
1392	8547052 94 1626 621852 0.028524626123 9.028524626123 3 7504 7504 22512 168930048
1394	8547146 85 1626 621852 0.028524626123 9.028524626123 3 0 0 0 0
1405	8547231 85 1626 621852 0.028524626123 9.028524626123 3 0 0 0 0
1415	8547316 94 1885 622205 0.032752273618 9.032752273618 3 7504 7504 22512 168930048
1416	8547410 94 1885 622205 0.032752273618 9.032752273618 3 7504 7504 22512 168930048
1418	8547504 85 1885 622205 0.032752273618 9.032752273618 3 0 0 0 0
1429	8547589 85 1885 622205 0.032752273618 9.032752273618 3 0 0 0 0
1439	8547674 94 2160 622593 0.037729873816 9.037729873816 3 7504 7504 22512 168930048
1440	8547768 94 2160 622593 0.037729873816 9.037729873816 3 7504 7504 22512 168930048
1442	8547862 85 2160 622593 0.037729873816 9.037729873816 3 0 0 0 0
1453	8547947 85 2160 622593 0.037729873816 9.037729873816 3 0 0 0 0
1463	8548032 94 2696 623333 0.046595396413 9.046595396413 3 7504 7504 22512 168930048
1464	8548126 94 2696 623333 0.046595396413 9.046595396413 3 7504 7504 22512 168930048
1466	8548220 85 2696 623333 0.046595396413 9.046595396413 3 0 0 0 0
1477	8548305 85 2696 623333 0.046595396413 9.046595396413 3 0 0 0 0
1487	8548390 94 3102 623893 0.053440309435 9.053440309435 3 7504 7504 22512 168930048
1488	8548484 94 3102 623893 0.053440309435 9.053440309435 3 7504 7504 22512 168930048
1490	8548578 85 3102 623893 0.053440309435 9.053440309435 3 0 0 0 0
1501	8548663 85 3102 623893 0.053440309435 9.053440309435 3 0 0 0 0
1511	8548748 91 3110 623900 0.05394782705 9.05394782705 3 7504 7504 22512 168930048
1512	8548839 91 3110 623900 0.05394782705 9.05394782705 3 7504 7504 22512 168930048
1514	8548930 82 3110 623900 0.05394782705 9.05394782705 3 0 0 0 0
1525	8549012 82 3110 623900 0.05394782705 9.05394782705 3 0 0 0 0
1535	8549094 94 3250 624069 0.055913616046 9.055913616046 3 7504 7504 22512 168930048
1536	8549188 94 3250 624069 0.055913616046 9.055913616046 3 7504 7504 22512 168930048
1538	8549282 85 3250 624069 0.055913616046 9.055913616046 3 0 0 0 0
1549	8549367 85 3250 624069 0.055913616046 9.055913616046 3 0 0 0 0
1559	8549452 94 3506 624339 0.058808041334 9.058808041334 3 7504 7504 22512 168930048
1560	8549546 94 3506 624339 0.058808041334 9.058808041334 3 7504 7504 22512 168930048
1562	8549640 85 3506 624339 0.058808041334 9.058808041334 3 0 0 0 0
1573	8549725 85 3506 624339 0.058808041334 9.058808041334 3 0 0 0 0
1583	8549810 94 3618 624493 0.060918334927 9.060918334927 3 7504 7504 22512 168930048
1584	8549904 94 3618 624493 0.060918334927 9.060918334927 3 7504 7504 22512 168930048
1586	8549998 85 3618 624493 0.060918334927 9.060918334927 3 0 0 0 0
1597	8550083 85 3618 624493 0.060918334927 9.060918334927 3 0 0 0 0
1607	8550168 94 4032 625019 0.066956260251 9.066956260251 3 7504 7504 22512 168930048
1608	8550262 94 4032 625019 0.066956260251 9.066956260251 3 7504 7504 22512 168930048
1610	8550356 85 4032 625019 0.066956260251 9.066956260251 3 0 0 0 0
1621	8550441 85 4032 625019 0.066956260251 9.066956260251 3 0 0 0 0
1631	8550526 94 4204 625239 0.068834142487 9.068834142487 3 7504 7504 22512 168930048
1632	8550620 94 4204 625239 0.068834142487 9.068834142487 3 7504 7504 22512 168930048
1634	8550714 85 4204 625239 0.068834142487 9.068834142487 3 0 0 0 0
1645	8550799 85 4204 625239 0.068834142487 9.068834142487 3 0 0 0 0
1655	8550884 94 4267 625311 0.069116189484 9.069116189484 3 7504 7504 22512 168930048
1656	8550978 94 4267 625311 0.069116189484 9.069116189484 3 7504 7504 22512 168930048
1658	8551072 85 4267 625311 0.069116189484 9.069116189484 3 0 0 0 0
1669	8551157 85 4267 625311 0.069116189484 9.069116189484 3 0 0 0 0
1679	8551242 94 4612 625746 0.074373740533 9.074373740533 3 7504 7504 22512 168930048
1680	8551336 94 4612 625746 0.074373740533 9.074373740533 3 7504 7504 22512 168930048
1682	8551430 85 4612 625746 0.074373740533 9.074373740533 3 0 0 0 0
1693	8551515 85 4612 625746 0.074373740533 9.074373740533 3 0 0 0 0
1703	8551600 91 4671 625818 0.07505697578 9.07505697578 3 7504 7504 22512 168930048
1704	8551691 91 4671 625818 0.07505697578 9.07505697578 3 7504 7504 22512 168930048
1706	8551782 82 4671 625818 0.07505697578 9.07505697578 3 0 0 0 0
1717	8551864 82 4671 625818 0.07505697578 9.07505697578 3 0 0 0 0
1727	8551946 91 5146 626341 0.08215464002 9.08215464002 3 7504 7504 22512 168930048
1728	8552037 91 5146 626341 0.08215464002 9.08215464002 3 7504 7504 22512 168930048
1730	8552128 82 5146 626341 0.08215464002 9.08215464002 3 0 0 0 0
1741	8552210 82 5146 626341 0.08215464002 9.08215464002 3 0 0 0 0
1751	8552292 94 5216 626422 0.083428886256 9.083428886256 3 7504 7504 22512 168930048
1752	8552386 94 5216 626422 0.083428886256 9.083428886256 3 7504 7504 22512 168930048
1754	8552480 85 5216 626422 0.083428886256 9.083428886256 3 0 0 0 0
1765	8552565 85 5216 626422 0.083428886256 9.083428886256 3 0 0 0 0
1775	8552650 94 5464 626707 0.086610205313 9.086610205313 3 7504 7504 22512 168930048
1776	8552744 94 5464 626707 0.086610205313 9.086610205313 3 7504 7504 22512 168930048
1778	8552838 85 5464 626707 0.086610205313 9.086610205313 3 0 0 0 0
1789	8552923 85 5464 626707 0.086610205313 9.086610205313 3 0 0 0 0
