file 8772224 1589564925                                         
version 2
run CAIN-54-20200515-14:43:06-17150
attr configname CAIN
attr datetime 20200515-14:43:06
attr dist 200
attr experiment CAIN
attr inifile omnetpp.ini
attr iterationvars "$numUe=25, $pwr=-50, $dist=200, $mob=\"./movements/RWPRPGM-0.0.movements\""
attr iterationvars2 "$numUe=25, $pwr=-50, $dist=200, $mob=\"./movements/RWPRPGM-0.0.movements\", $repetition=4"
attr measurement "$numUe=25, $pwr=-50, $dist=200, $mob=\"./movements/RWPRPGM-0.0.movements\""
attr mob "\"./movements/RWPRPGM-0.0.movements\""
attr network lte.simulations.networks.CAIN
attr numUe 25
attr processid 17150
attr pwr -50
attr repetition 4
attr replication #4
attr resultdir results
attr runnumber 54
attr seedset 4
param **.**.amcMode "\"AUTO\""
param **.amcMode "\"D2D\""
param **.cainNetwork true
param **.channelControl.alpha 1.0
param **.channelControl.carrierFrequency 2100e+6Hz
param **.channelControl.pMax 10W
param **.d2dCqi 7
param **.deployer.numRbDl 50
param **.deployer.numRbUl 50
param **.distThresh ${dist=200}
param **.fbDelay 1
param **.feedbackComputation "xmldoc(\"config_channel.xml\")"
param **.mobility.constraintAreaMaxX 1000m
param **.mobility.constraintAreaMaxY 1000m
param **.mobility.constraintAreaMaxZ 0m
param **.mobility.constraintAreaMinX 0m
param **.mobility.constraintAreaMinY 0m
param **.mobility.constraintAreaMinZ 0m
param **.nic.phy.channelModel "xmldoc(\"config_channel.xml\")"
param **.numBands 50
param **.pwrThresh "${pwr= -50}"
param **.qtdThresh 3
param **.rbAllocationType "\"localized\""
param **.routingRecorder.enabled false
param **.tcpApp[*].tClose -1s
param **.ueD2DTx[*].mobility.changeAngleBy "normal(0deg, 30deg)"
param **.ueD2DTx[*].mobility.changeInterval "normal(5s, 0.1s)"
param **.ueD2DTx[*].mobility.nodeId -1
param **.ueD2DTx[*].mobility.speed "normal(2mps, 0.01mps)"
param **.ueD2DTx[*].mobility.traceFile "${mob=\"./movements/RWP-0.0.movements\",\"./movements/RWP-0.5.movements\",\"./movements/RPGM-0.0.movements\",\"./movements/RPGM-0.5.movements\",\"./movements/RWPRPGM-0.0.movements\",\"./movements/RWPRPGM-0.5.movements\"}"
param **.ueD2DTx[*].mobilityType "\"BonnMotionMobility\""
param **.usePreconfiguredTxParams false
param *.eNodeB*.numX2Apps 1
param *.eNodeB*.x2App[*].server.localPort "5000 + ancestorIndex(1)"
param *.eNodeB.d2dCapable false
param *.eNodeB.mobility.initFromDisplayString false
param *.eNodeB.mobility.initialX 300m
param *.eNodeB.mobility.initialY 300m
param *.eNodeB.nic.phy.enableD2DCqiReporting true
param *.eNodeB.txPower 19952.62315mw
param *.eNodeB.x2App[0].client.connectAddress "\"eNodeB1%x2ppp0\""
param *.eNodeB1.d2dCapable true
param *.eNodeB1.mobility.initFromDisplayString false
param *.eNodeB1.mobility.initialX 700m
param *.eNodeB1.mobility.initialY 300m
param *.eNodeB1.nic.phy.enableD2DCqiReporting true
param *.eNodeB1.txPower 19952.62315mw
param *.eNodeB1.x2App[0].client.connectAddress "\"eNodeB%x2ppp0\""
param *.extCell[*].bandAllocationType "\"FULL_ALLOC\""
param *.extCell[*].bandUtilization 0.5
param *.extCell[*].txDirection "\"ANISOTROPIC\""
param *.extCell[*].txPower 20
param *.extCell[0].position_x 100m
param *.extCell[0].position_y 600m
param *.extCell[0].txAngle 315
param *.extCell[1].position_x 600m
param *.extCell[1].position_y 600m
param *.extCell[1].txAngle 225
param *.numExtCells 2
param *.numUeCell 0
param *.numUeD2DRx 1
param *.numUeD2DTx 1
param *.ue*.macCellId 1
param *.ue*.masterId 1
param *.ue*.mobility.initFromDisplayString false
param *.ue*[0].macCellId 1
param *.ue*[0].masterId 1
param *.ue*[0].mobility.initFromDisplayString false
param *.ueD2D*.numTcpApps 1
param *.ueD2D*[*].d2dCapable true
param *.ueD2D*[0].d2dCapable false
param *.ueD2D*[0].numTcpApps 1
param *.ueD2DRx[0].mobility.initialX 310m
param *.ueD2DRx[0].mobility.initialY 350m
param *.ueD2DRx[0].tcpApp[*].localPort 1000
param *.ueD2DRx[0].tcpApp[*].typename "\"TCPSinkApp\""
param *.ueD2DTx*.nic.d2dPeerAddresses "\"ueD2DTx[1]\""
param *.ueD2DTx*.tcpApp[*].connectAddress "\"ueD2DTx[0]\""
param *.ueD2DTx*.tcpApp[*].localAddress "\"ueD2DTx\""
param *.ueD2DTx*.tcpApp[*].localPort 1000
param *.ueD2DTx*.tcpApp[*].sendBytes 1GiB
param *.ueD2DTx*.tcpApp[*].typename "\"TCPSessionApp\""
param *.ueD2DTx*.tcpApp[0].active true
param *.ueD2DTx*.tcpApp[0].connectPort 1000
param *.ueD2DTx*.tcpApp[0].tOpen uniform(0.010s,0.1s)
param *.ueD2DTx*.tcpApp[0].tSend uniform(0.15s,0.5s)
param *.ueD2DTx[0].mobility.initialX 290m
param *.ueD2DTx[0].mobility.initialY 350m
param *.ueD2DTx[0].tcpApp[*].localPort 1000
param *.ueD2DTx[0].tcpApp[*].sendBytes 1GiB
param *.ueD2DTx[0].tcpApp[*].typename "\"TCPSessionApp\""
param *.ueD2DTx[0].tcpApp[0].active true
param *.ueD2DTx[0].tcpApp[0].connectAddress "\"ueD2DRx[0]\""
param *.ueD2DTx[0].tcpApp[0].connectPort 1000
param *.ueD2DTx[0].tcpApp[0].localAddress "\"ueD2DTx[0]\""
param *.ueD2DTx[0].tcpApp[0].tOpen uniform(0.010s,0.1s)
param *.ueD2DTx[0].tcpApp[0].tSend uniform(0.15s,0.5s)

vector 8  CAIN.server.ppp[0].queue  queueLength:vector  ETV
attr interpolationmode  sample-hold
attr title  "queue length, vector"
vector 9  CAIN.server.ppp[0].ppp  txState:vector  ETV
attr interpolationmode  sample-hold
attr title  "tx state, vector"
vector 24  CAIN.router.ppp[0].queue  queueLength:vector  ETV
attr interpolationmode  sample-hold
attr title  "queue length, vector"
vector 25  CAIN.router.ppp[0].ppp  txState:vector  ETV
attr interpolationmode  sample-hold
attr title  "tx state, vector"
vector 35  CAIN.router.ppp[1].queue  queueLength:vector  ETV
attr interpolationmode  sample-hold
attr title  "queue length, vector"
vector 36  CAIN.router.ppp[1].ppp  txState:vector  ETV
attr interpolationmode  sample-hold
attr title  "tx state, vector"
vector 56  CAIN.pgw.ppp[0].queue  queueLength:vector  ETV
attr interpolationmode  sample-hold
attr title  "queue length, vector"
vector 57  CAIN.pgw.ppp[0].ppp  txState:vector  ETV
attr interpolationmode  sample-hold
attr title  "tx state, vector"
vector 67  CAIN.pgw.ppp[1].queue  queueLength:vector  ETV
attr interpolationmode  sample-hold
attr title  "queue length, vector"
vector 68  CAIN.pgw.ppp[1].ppp  txState:vector  ETV
attr interpolationmode  sample-hold
attr title  "tx state, vector"
vector 78  CAIN.pgw.pppInterface.queue  queueLength:vector  ETV
attr interpolationmode  sample-hold
attr title  "queue length, vector"
vector 79  CAIN.pgw.pppInterface.ppp  txState:vector  ETV
attr interpolationmode  sample-hold
attr title  "tx state, vector"
vector 120  CAIN.eNodeB.pppIf.queue  queueLength:vector  ETV
attr interpolationmode  sample-hold
attr title  "queue length, vector"
vector 121  CAIN.eNodeB.pppIf.ppp  txState:vector  ETV
attr interpolationmode  sample-hold
attr title  "tx state, vector"
vector 131  CAIN.eNodeB.x2ppp[0].queue  queueLength:vector  ETV
attr interpolationmode  sample-hold
attr title  "queue length, vector"
vector 132  CAIN.eNodeB.x2ppp[0].ppp  txState:vector  ETV
attr interpolationmode  sample-hold
attr title  "tx state, vector"
vector 178  CAIN.eNodeB1.pppIf.queue  queueLength:vector  ETV
attr interpolationmode  sample-hold
attr title  "queue length, vector"
vector 179  CAIN.eNodeB1.pppIf.ppp  txState:vector  ETV
attr interpolationmode  sample-hold
attr title  "tx state, vector"
vector 189  CAIN.eNodeB1.x2ppp[0].queue  queueLength:vector  ETV
attr interpolationmode  sample-hold
attr title  "queue length, vector"
vector 190  CAIN.eNodeB1.x2ppp[0].ppp  txState:vector  ETV
attr interpolationmode  sample-hold
attr title  "tx state, vector"
vector 231  CAIN.ueD2DTx[0].nic.phy  servingCell:vector  ETV
attr source  servingCell
attr title  "ID of the serving eNodeB for the UE, vector"
attr unit  ""
vector 263  CAIN.ueD2DTx[1].nic.phy  servingCell:vector  ETV
attr source  servingCell
attr title  "ID of the serving eNodeB for the UE, vector"
attr unit  ""
vector 295  CAIN.ueD2DTx[2].nic.phy  servingCell:vector  ETV
attr source  servingCell
attr title  "ID of the serving eNodeB for the UE, vector"
attr unit  ""
vector 327  CAIN.ueD2DTx[3].nic.phy  servingCell:vector  ETV
attr source  servingCell
attr title  "ID of the serving eNodeB for the UE, vector"
attr unit  ""
vector 359  CAIN.ueD2DTx[4].nic.phy  servingCell:vector  ETV
attr source  servingCell
attr title  "ID of the serving eNodeB for the UE, vector"
attr unit  ""
vector 391  CAIN.ueD2DTx[5].nic.phy  servingCell:vector  ETV
attr source  servingCell
attr title  "ID of the serving eNodeB for the UE, vector"
attr unit  ""
vector 423  CAIN.ueD2DTx[6].nic.phy  servingCell:vector  ETV
attr source  servingCell
attr title  "ID of the serving eNodeB for the UE, vector"
attr unit  ""
vector 455  CAIN.ueD2DTx[7].nic.phy  servingCell:vector  ETV
attr source  servingCell
attr title  "ID of the serving eNodeB for the UE, vector"
attr unit  ""
vector 487  CAIN.ueD2DTx[8].nic.phy  servingCell:vector  ETV
attr source  servingCell
attr title  "ID of the serving eNodeB for the UE, vector"
attr unit  ""
vector 519  CAIN.ueD2DTx[9].nic.phy  servingCell:vector  ETV
attr source  servingCell
attr title  "ID of the serving eNodeB for the UE, vector"
attr unit  ""
vector 551  CAIN.ueD2DTx[10].nic.phy  servingCell:vector  ETV
attr source  servingCell
attr title  "ID of the serving eNodeB for the UE, vector"
attr unit  ""
vector 583  CAIN.ueD2DTx[11].nic.phy  servingCell:vector  ETV
attr source  servingCell
attr title  "ID of the serving eNodeB for the UE, vector"
attr unit  ""
vector 615  CAIN.ueD2DTx[12].nic.phy  servingCell:vector  ETV
attr source  servingCell
attr title  "ID of the serving eNodeB for the UE, vector"
attr unit  ""
vector 647  CAIN.ueD2DTx[13].nic.phy  servingCell:vector  ETV
attr source  servingCell
attr title  "ID of the serving eNodeB for the UE, vector"
attr unit  ""
vector 679  CAIN.ueD2DTx[14].nic.phy  servingCell:vector  ETV
attr source  servingCell
attr title  "ID of the serving eNodeB for the UE, vector"
attr unit  ""
vector 711  CAIN.ueD2DTx[15].nic.phy  servingCell:vector  ETV
attr source  servingCell
attr title  "ID of the serving eNodeB for the UE, vector"
attr unit  ""
vector 743  CAIN.ueD2DTx[16].nic.phy  servingCell:vector  ETV
attr source  servingCell
attr title  "ID of the serving eNodeB for the UE, vector"
attr unit  ""
vector 775  CAIN.ueD2DTx[17].nic.phy  servingCell:vector  ETV
attr source  servingCell
attr title  "ID of the serving eNodeB for the UE, vector"
attr unit  ""
vector 807  CAIN.ueD2DTx[18].nic.phy  servingCell:vector  ETV
attr source  servingCell
attr title  "ID of the serving eNodeB for the UE, vector"
attr unit  ""
vector 839  CAIN.ueD2DTx[19].nic.phy  servingCell:vector  ETV
attr source  servingCell
attr title  "ID of the serving eNodeB for the UE, vector"
attr unit  ""
vector 871  CAIN.ueD2DTx[20].nic.phy  servingCell:vector  ETV
attr source  servingCell
attr title  "ID of the serving eNodeB for the UE, vector"
attr unit  ""
vector 903  CAIN.ueD2DTx[21].nic.phy  servingCell:vector  ETV
attr source  servingCell
attr title  "ID of the serving eNodeB for the UE, vector"
attr unit  ""
vector 935  CAIN.ueD2DTx[22].nic.phy  servingCell:vector  ETV
attr source  servingCell
attr title  "ID of the serving eNodeB for the UE, vector"
attr unit  ""
vector 967  CAIN.ueD2DTx[23].nic.phy  servingCell:vector  ETV
attr source  servingCell
attr title  "ID of the serving eNodeB for the UE, vector"
attr unit  ""
vector 999  CAIN.ueD2DTx[24].nic.phy  servingCell:vector  ETV
attr source  servingCell
attr title  "ID of the serving eNodeB for the UE, vector"
attr unit  ""
vector 1023  CAIN.eNodeB.sctp  "Throughput of Association 3"  ETV
vector 1045  CAIN.eNodeB1.sctp  "Throughput of Association 4"  ETV
vector 1067  CAIN.eNodeB.sctp  "Throughput of Association 1"  ETV
vector 1087  CAIN.eNodeB.sctp  "Fast Recovery State 1:10.0.5.2"  ETV
vector 1116  CAIN.eNodeB1.sctp  "Throughput of Association 2"  ETV
vector 1136  CAIN.eNodeB1.sctp  "Fast Recovery State 2:10.0.5.1"  ETV
vector 128  CAIN.eNodeB.x2ppp[0].queue  rcvdPk:vector(packetBytes)  ETV
attr interpolationmode  none
attr title  "received packets, vector(packetBytes)"
vector 130  CAIN.eNodeB.x2ppp[0].queue  queueingTime:vector  ETV
attr interpolationmode  none
attr title  "queueing time, vector"
vector 186  CAIN.eNodeB1.x2ppp[0].queue  rcvdPk:vector(packetBytes)  ETV
attr interpolationmode  none
attr title  "received packets, vector(packetBytes)"
vector 188  CAIN.eNodeB1.x2ppp[0].queue  queueingTime:vector  ETV
attr interpolationmode  none
attr title  "queueing time, vector"
vector 137  CAIN.eNodeB.x2ppp[0].ppp  rcvdPkFromHL:vector(packetBytes)  ETV
attr interpolationmode  none
attr source  packetReceivedFromUpper
attr title  "packets received from higher layer, vector(packetBytes)"
vector 133  CAIN.eNodeB.x2ppp[0].ppp  txPk:vector(packetBytes)  ETV
attr interpolationmode  none
attr source  packetSentToLower
attr title  "packets transmitted, vector(packetBytes)"
vector 195  CAIN.eNodeB1.x2ppp[0].ppp  rcvdPkFromHL:vector(packetBytes)  ETV
attr interpolationmode  none
attr source  packetReceivedFromUpper
attr title  "packets received from higher layer, vector(packetBytes)"
vector 191  CAIN.eNodeB1.x2ppp[0].ppp  txPk:vector(packetBytes)  ETV
attr interpolationmode  none
attr source  packetSentToLower
attr title  "packets transmitted, vector(packetBytes)"
vector 192  CAIN.eNodeB1.x2ppp[0].ppp  rxPkOk:vector(packetBytes)  ETV
attr interpolationmode  none
attr source  rxPkOk
attr title  "packets received OK, vector(packetBytes)"
vector 196  CAIN.eNodeB1.x2ppp[0].ppp  passedUpPk:vector(packetBytes)  ETV
attr interpolationmode  none
attr source  packetSentToUpper
attr title  "packets passed to higher layer, vector(packetBytes)"
vector 134  CAIN.eNodeB.x2ppp[0].ppp  rxPkOk:vector(packetBytes)  ETV
attr interpolationmode  none
attr source  rxPkOk
attr title  "packets received OK, vector(packetBytes)"
vector 138  CAIN.eNodeB.x2ppp[0].ppp  passedUpPk:vector(packetBytes)  ETV
attr interpolationmode  none
attr source  packetSentToUpper
attr title  "packets passed to higher layer, vector(packetBytes)"
vector 1165  CAIN.eNodeB1.sctp  "Throughput of Association 4"  ETV
vector 1042  CAIN.eNodeB1.sctp  "Peer Rwnd 4"  ETV
vector 1185  CAIN.eNodeB1.sctp  "Fast Recovery State 5:10.0.4.1"  ETV
vector 1212  CAIN.eNodeB1.sctp  "Fast Recovery State 5:10.0.2.2"  ETV
vector 1239  CAIN.eNodeB1.sctp  "Fast Recovery State 5:10.0.5.1"  ETV
vector 1268  CAIN.eNodeB.sctp  "Throughput of Association 3"  ETV
vector 1020  CAIN.eNodeB.sctp  "Peer Rwnd 3"  ETV
vector 1288  CAIN.eNodeB.sctp  "Fast Recovery State 6:10.0.4.2"  ETV
vector 1315  CAIN.eNodeB.sctp  "Fast Recovery State 6:10.0.3.2"  ETV
vector 1342  CAIN.eNodeB.sctp  "Fast Recovery State 6:10.0.5.2"  ETV
vector 1064  CAIN.eNodeB.sctp  "Peer Rwnd 1"  ETV
vector 1369  CAIN.eNodeB.sctp  "Fast Recovery State 1:10.0.4.2"  ETV
vector 1396  CAIN.eNodeB.sctp  "Fast Recovery State 1:10.0.3.2"  ETV
vector 1113  CAIN.eNodeB1.sctp  "Peer Rwnd 2"  ETV
vector 1423  CAIN.eNodeB1.sctp  "Fast Recovery State 2:10.0.4.1"  ETV
vector 1450  CAIN.eNodeB1.sctp  "Fast Recovery State 2:10.0.2.2"  ETV
vector 1195  CAIN.eNodeB1.sctp  "Slow Start Threshold 5:10.0.2.2"  ETV
vector 1196  CAIN.eNodeB1.sctp  "Congestion Window 5:10.0.2.2"  ETV
vector 1197  CAIN.eNodeB1.sctp  "Bandwidth 5:10.0.2.2"  ETV
vector 1200  CAIN.eNodeB1.sctp  "HB Sent 5:10.0.2.2"  ETV
vector 1193  CAIN.eNodeB1.sctp  "RTO 5:10.0.2.2"  ETV
vector 1168  CAIN.eNodeB1.sctp  "Slow Start Threshold 5:10.0.4.1"  ETV
vector 1169  CAIN.eNodeB1.sctp  "Congestion Window 5:10.0.4.1"  ETV
vector 1170  CAIN.eNodeB1.sctp  "Bandwidth 5:10.0.4.1"  ETV
vector 1173  CAIN.eNodeB1.sctp  "HB Sent 5:10.0.4.1"  ETV
vector 1166  CAIN.eNodeB1.sctp  "RTO 5:10.0.4.1"  ETV
vector 1222  CAIN.eNodeB1.sctp  "Slow Start Threshold 5:10.0.5.1"  ETV
vector 1223  CAIN.eNodeB1.sctp  "Congestion Window 5:10.0.5.1"  ETV
vector 1224  CAIN.eNodeB1.sctp  "Bandwidth 5:10.0.5.1"  ETV
vector 1220  CAIN.eNodeB1.sctp  "RTO 5:10.0.5.1"  ETV
vector 1298  CAIN.eNodeB.sctp  "Slow Start Threshold 6:10.0.3.2"  ETV
vector 1299  CAIN.eNodeB.sctp  "Congestion Window 6:10.0.3.2"  ETV
vector 1300  CAIN.eNodeB.sctp  "Bandwidth 6:10.0.3.2"  ETV
vector 1303  CAIN.eNodeB.sctp  "HB Sent 6:10.0.3.2"  ETV
vector 1296  CAIN.eNodeB.sctp  "RTO 6:10.0.3.2"  ETV
vector 1271  CAIN.eNodeB.sctp  "Slow Start Threshold 6:10.0.4.2"  ETV
vector 1272  CAIN.eNodeB.sctp  "Congestion Window 6:10.0.4.2"  ETV
vector 1273  CAIN.eNodeB.sctp  "Bandwidth 6:10.0.4.2"  ETV
vector 1276  CAIN.eNodeB.sctp  "HB Sent 6:10.0.4.2"  ETV
vector 1269  CAIN.eNodeB.sctp  "RTO 6:10.0.4.2"  ETV
vector 1325  CAIN.eNodeB.sctp  "Slow Start Threshold 6:10.0.5.2"  ETV
vector 1326  CAIN.eNodeB.sctp  "Congestion Window 6:10.0.5.2"  ETV
vector 1327  CAIN.eNodeB.sctp  "Bandwidth 6:10.0.5.2"  ETV
vector 1323  CAIN.eNodeB.sctp  "RTO 6:10.0.5.2"  ETV
vector 1076  CAIN.eNodeB.sctp  "HB ACK Sent 1:10.0.5.2"  ETV
vector 1077  CAIN.eNodeB.sctp  "HB Received 1:10.0.5.2"  ETV
vector 1125  CAIN.eNodeB1.sctp  "HB ACK Sent 2:10.0.5.1"  ETV
vector 1126  CAIN.eNodeB1.sctp  "HB Received 2:10.0.5.1"  ETV
vector 1379  CAIN.eNodeB.sctp  "Slow Start Threshold 1:10.0.3.2"  ETV
vector 1380  CAIN.eNodeB.sctp  "Congestion Window 1:10.0.3.2"  ETV
vector 1381  CAIN.eNodeB.sctp  "Bandwidth 1:10.0.3.2"  ETV
vector 1384  CAIN.eNodeB.sctp  "HB Sent 1:10.0.3.2"  ETV
vector 1377  CAIN.eNodeB.sctp  "RTO 1:10.0.3.2"  ETV
vector 1352  CAIN.eNodeB.sctp  "Slow Start Threshold 1:10.0.4.2"  ETV
vector 1353  CAIN.eNodeB.sctp  "Congestion Window 1:10.0.4.2"  ETV
vector 1354  CAIN.eNodeB.sctp  "Bandwidth 1:10.0.4.2"  ETV
vector 1357  CAIN.eNodeB.sctp  "HB Sent 1:10.0.4.2"  ETV
vector 1350  CAIN.eNodeB.sctp  "RTO 1:10.0.4.2"  ETV
vector 1070  CAIN.eNodeB.sctp  "Slow Start Threshold 1:10.0.5.2"  ETV
vector 1071  CAIN.eNodeB.sctp  "Congestion Window 1:10.0.5.2"  ETV
vector 1072  CAIN.eNodeB.sctp  "Bandwidth 1:10.0.5.2"  ETV
vector 1068  CAIN.eNodeB.sctp  "RTO 1:10.0.5.2"  ETV
vector 1433  CAIN.eNodeB1.sctp  "Slow Start Threshold 2:10.0.2.2"  ETV
vector 1434  CAIN.eNodeB1.sctp  "Congestion Window 2:10.0.2.2"  ETV
vector 1435  CAIN.eNodeB1.sctp  "Bandwidth 2:10.0.2.2"  ETV
vector 1438  CAIN.eNodeB1.sctp  "HB Sent 2:10.0.2.2"  ETV
vector 1431  CAIN.eNodeB1.sctp  "RTO 2:10.0.2.2"  ETV
vector 1406  CAIN.eNodeB1.sctp  "Slow Start Threshold 2:10.0.4.1"  ETV
vector 1407  CAIN.eNodeB1.sctp  "Congestion Window 2:10.0.4.1"  ETV
vector 1408  CAIN.eNodeB1.sctp  "Bandwidth 2:10.0.4.1"  ETV
vector 1411  CAIN.eNodeB1.sctp  "HB Sent 2:10.0.4.1"  ETV
vector 1404  CAIN.eNodeB1.sctp  "RTO 2:10.0.4.1"  ETV
vector 1119  CAIN.eNodeB1.sctp  "Slow Start Threshold 2:10.0.5.1"  ETV
vector 1120  CAIN.eNodeB1.sctp  "Congestion Window 2:10.0.5.1"  ETV
vector 1121  CAIN.eNodeB1.sctp  "Bandwidth 2:10.0.5.1"  ETV
vector 1117  CAIN.eNodeB1.sctp  "RTO 2:10.0.5.1"  ETV
vector 1333  CAIN.eNodeB.sctp  "HB ACK Received 6:10.0.5.2"  ETV
vector 1324  CAIN.eNodeB.sctp  "RTT 6:10.0.5.2"  ETV
vector 1230  CAIN.eNodeB1.sctp  "HB ACK Received 5:10.0.5.1"  ETV
vector 1221  CAIN.eNodeB1.sctp  "RTT 5:10.0.5.1"  ETV
vector 1331  CAIN.eNodeB.sctp  "HB ACK Sent 6:10.0.5.2"  ETV
vector 1332  CAIN.eNodeB.sctp  "HB Received 6:10.0.5.2"  ETV
vector 1228  CAIN.eNodeB1.sctp  "HB ACK Sent 5:10.0.5.1"  ETV
vector 1229  CAIN.eNodeB1.sctp  "HB Received 5:10.0.5.1"  ETV
vector 1127  CAIN.eNodeB1.sctp  "HB ACK Received 2:10.0.5.1"  ETV
vector 1118  CAIN.eNodeB1.sctp  "RTT 2:10.0.5.1"  ETV
vector 1078  CAIN.eNodeB.sctp  "HB ACK Received 1:10.0.5.2"  ETV
vector 1069  CAIN.eNodeB.sctp  "RTT 1:10.0.5.2"  ETV
vector 96  CAIN.eNodeB.nic.mac  receivedPacketFromLowerLayer:vector(packetBytes)  ETV
attr interpolationmode  none
attr source  receivedPacketFromLowerLayer
vector 1465  CAIN.eNodeB.sctp  "SendQueue of Association 6"  ETV
vector 1328  CAIN.eNodeB.sctp  "TSN Sent 6:10.0.5.2"  ETV
vector 1335  CAIN.eNodeB.sctp  "Outstanding Bytes 6:10.0.5.2"  ETV
vector 1008  CAIN.eNodeB.sctp  "Outstanding Bytes 3:Total"  ETV
vector 1334  CAIN.eNodeB.sctp  "Queued Sent Bytes 6:10.0.5.2"  ETV
vector 1007  CAIN.eNodeB.sctp  "Queued Sent Bytes 3:Total"  ETV
vector 1123  CAIN.eNodeB1.sctp  "TSN Received 2:10.0.5.1"  ETV
vector 1099  CAIN.eNodeB1.sctp  "Queued Received Bytes 2:Total"  ETV
vector 1095  CAIN.eNodeB1.sctp  "Advertised Receiver Window 2"  ETV
vector 1104  CAIN.eNodeB1.sctp  "Number of Total Gap Blocks Stored 2"  ETV
vector 1105  CAIN.eNodeB1.sctp  "Number of Revokable Gap Blocks Stored 2"  ETV
vector 1106  CAIN.eNodeB1.sctp  "Number of Non-Revokable Gap Blocks Stored 2"  ETV
vector 1107  CAIN.eNodeB1.sctp  "Number of Duplicate TSNs Stored 2"  ETV
vector 1111  CAIN.eNodeB1.sctp  "Length of SACK Sent 2"  ETV
vector 1108  CAIN.eNodeB1.sctp  "Number of Revokable Gap Blocks Sent 2"  ETV
vector 1109  CAIN.eNodeB1.sctp  "Number of Non-Revokable Gap Blocks Sent 2"  ETV
vector 1110  CAIN.eNodeB1.sctp  "Number of Duplicate TSNs Sent 2"  ETV
vector 1115  CAIN.eNodeB1.sctp  "End to End Delay of Association 2"  ETV
vector 199  CAIN.eNodeB1.x2App[0].client  rcvdPk:vector(packetBytes)  ETV
attr interpolationmode  none
attr source  rcvdPk
attr title  "packets received, vector(packetBytes)"
vector 1464  CAIN.eNodeB.sctp  "Number of Gap Blocks in Last SACK of Association 6"  ETV
vector 1009  CAIN.eNodeB.sctp  "Number of Revokable Gap Blocks in SACK 3"  ETV
vector 1010  CAIN.eNodeB.sctp  "Number of Non-Revokable Gap Blocks in SACK 3"  ETV
vector 1345  CAIN.eNodeB.sctp  "TSN Acked CumAck 6:10.0.5.2"  ETV
vector 1311  CAIN.eNodeB.sctp  "Number of Gap Acked Chunks in Last SACK 6:10.0.3.2"  ETV
vector 1312  CAIN.eNodeB.sctp  "Number of Non-Revokable Gap Acked Chunks in Last SACK 6:10.0.3.2"  ETV
vector 1313  CAIN.eNodeB.sctp  "Number of Gap Missed Chunks in Last SACK 6:10.0.3.2"  ETV
vector 1284  CAIN.eNodeB.sctp  "Number of Gap Acked Chunks in Last SACK 6:10.0.4.2"  ETV
vector 1285  CAIN.eNodeB.sctp  "Number of Non-Revokable Gap Acked Chunks in Last SACK 6:10.0.4.2"  ETV
vector 1286  CAIN.eNodeB.sctp  "Number of Gap Missed Chunks in Last SACK 6:10.0.4.2"  ETV
vector 1338  CAIN.eNodeB.sctp  "Number of Gap Acked Chunks in Last SACK 6:10.0.5.2"  ETV
vector 1339  CAIN.eNodeB.sctp  "Number of Non-Revokable Gap Acked Chunks in Last SACK 6:10.0.5.2"  ETV
vector 1340  CAIN.eNodeB.sctp  "Number of Gap Missed Chunks in Last SACK 6:10.0.5.2"  ETV
vector 1019  CAIN.eNodeB.sctp  "Arwnd in Last SACK 3"  ETV
vector 1347  CAIN.eNodeB.sctp  "TSN PseudoCumAck 6:10.0.5.2"  ETV
vector 1348  CAIN.eNodeB.sctp  "TSN RTXPseudoCumAck 6:10.0.5.2"  ETV
vector 1341  CAIN.eNodeB.sctp  "Partial Bytes Acked 6:10.0.5.2"  ETV
vector 1493  CAIN.ueD2DTx[16].tcp  tcpRcvQueueBytes  ETV
vector 1480  CAIN.ueD2DTx[16].tcp  "advertised window"  ETV
vector 1479  CAIN.ueD2DTx[16].tcp  "receive window"  ETV
vector 1482  CAIN.ueD2DTx[16].tcp  "sent ack"  ETV
vector 717  CAIN.ueD2DTx[16].nic.pdcpRrc  receivedPacketFromUpperLayer:vector(packetBytes)  ETV
attr interpolationmode  none
attr source  receivedPacketFromUpperLayer
vector 720  CAIN.ueD2DTx[16].nic.pdcpRrc  sentPacketToLowerLayer:vector(packetBytes)  ETV
attr interpolationmode  none
attr source  sentPacketToLowerLayer
vector 721  CAIN.ueD2DTx[16].nic.mac  receivedPacketFromUpperLayer:vector(packetBytes)  ETV
attr interpolationmode  none
attr source  receivedPacketFromUpperLayer
vector 731  CAIN.ueD2DTx[16].nic.mac  CainHopMessageSent:vector  ETV
attr interpolationmode  none
attr title  "# of Sent CAIN hop message, vector"
vector 724  CAIN.ueD2DTx[16].nic.mac  sentPacketToLowerLayer:vector(packetBytes)  ETV
attr interpolationmode  none
attr source  sentPacketToLowerLayer
vector 466  CAIN.ueD2DTx[8].nic.mac  receivedPacketFromLowerLayer:vector(packetBytes)  ETV
attr interpolationmode  none
attr source  receivedPacketFromLowerLayer
vector 468  CAIN.ueD2DTx[8].nic.mac  sentPacketToLowerLayer:vector(packetBytes)  ETV
attr interpolationmode  none
attr source  sentPacketToLowerLayer
vector 690  CAIN.ueD2DTx[15].nic.mac  receivedPacketFromLowerLayer:vector(packetBytes)  ETV
attr interpolationmode  none
attr source  receivedPacketFromLowerLayer
vector 692  CAIN.ueD2DTx[15].nic.mac  sentPacketToLowerLayer:vector(packetBytes)  ETV
attr interpolationmode  none
attr source  sentPacketToLowerLayer
vector 111  CAIN.eNodeB.nic.mac  racpkt:vector  ETV
attr interpolationmode  none
attr title  "eNB received racpkt message, vector"
vector 112  CAIN.eNodeB.nic.mac  racDistanceSignal:vector  ETV
attr interpolationmode  none
attr title  "Rac distance to enb, vector"
vector 113  CAIN.eNodeB.nic.mac  racServedDevsSignal:vector  ETV
attr interpolationmode  none
attr title  "# of devices served on rac arriavall, vector"
vector 106  CAIN.eNodeB.nic.mac  DistanceSignal:vector  ETV
attr interpolationmode  none
attr title  "Distance to enb, vector"
vector 101  CAIN.eNodeB.nic.mac  CainHopMessage:vector  ETV
attr interpolationmode  none
attr title  "eNB received CAIN hop message, vector"
vector 98  CAIN.eNodeB.nic.mac  sentPacketToLowerLayer:vector(packetBytes)  ETV
attr interpolationmode  none
attr source  sentPacketToLowerLayer
vector 697  CAIN.ueD2DTx[15].nic.mac  DropedHopMessage:vector  ETV
attr interpolationmode  none
attr title  "Droped Hop CAIN message due to RB not available, vector"
vector 1517  CAIN.ueD2DTx[21].tcp  tcpRcvQueueBytes  ETV
vector 1504  CAIN.ueD2DTx[21].tcp  "advertised window"  ETV
vector 1503  CAIN.ueD2DTx[21].tcp  "receive window"  ETV
vector 1506  CAIN.ueD2DTx[21].tcp  "sent ack"  ETV
vector 877  CAIN.ueD2DTx[21].nic.pdcpRrc  receivedPacketFromUpperLayer:vector(packetBytes)  ETV
attr interpolationmode  none
attr source  receivedPacketFromUpperLayer
vector 880  CAIN.ueD2DTx[21].nic.pdcpRrc  sentPacketToLowerLayer:vector(packetBytes)  ETV
attr interpolationmode  none
attr source  sentPacketToLowerLayer
vector 881  CAIN.ueD2DTx[21].nic.mac  receivedPacketFromUpperLayer:vector(packetBytes)  ETV
attr interpolationmode  none
attr source  receivedPacketFromUpperLayer
vector 891  CAIN.ueD2DTx[21].nic.mac  CainHopMessageSent:vector  ETV
attr interpolationmode  none
attr title  "# of Sent CAIN hop message, vector"
vector 884  CAIN.ueD2DTx[21].nic.mac  sentPacketToLowerLayer:vector(packetBytes)  ETV
attr interpolationmode  none
attr source  sentPacketToLowerLayer
vector 338  CAIN.ueD2DTx[4].nic.mac  receivedPacketFromLowerLayer:vector(packetBytes)  ETV
attr interpolationmode  none
attr source  receivedPacketFromLowerLayer
vector 340  CAIN.ueD2DTx[4].nic.mac  sentPacketToLowerLayer:vector(packetBytes)  ETV
attr interpolationmode  none
attr source  sentPacketToLowerLayer
vector 594  CAIN.ueD2DTx[12].nic.mac  receivedPacketFromLowerLayer:vector(packetBytes)  ETV
attr interpolationmode  none
attr source  receivedPacketFromLowerLayer
vector 596  CAIN.ueD2DTx[12].nic.mac  sentPacketToLowerLayer:vector(packetBytes)  ETV
attr interpolationmode  none
attr source  sentPacketToLowerLayer
vector 1541  CAIN.ueD2DTx[3].tcp  tcpRcvQueueBytes  ETV
vector 1528  CAIN.ueD2DTx[3].tcp  "advertised window"  ETV
vector 1527  CAIN.ueD2DTx[3].tcp  "receive window"  ETV
vector 1530  CAIN.ueD2DTx[3].tcp  "sent ack"  ETV
vector 301  CAIN.ueD2DTx[3].nic.pdcpRrc  receivedPacketFromUpperLayer:vector(packetBytes)  ETV
attr interpolationmode  none
attr source  receivedPacketFromUpperLayer
vector 304  CAIN.ueD2DTx[3].nic.pdcpRrc  sentPacketToLowerLayer:vector(packetBytes)  ETV
attr interpolationmode  none
attr source  sentPacketToLowerLayer
vector 305  CAIN.ueD2DTx[3].nic.mac  receivedPacketFromUpperLayer:vector(packetBytes)  ETV
attr interpolationmode  none
attr source  receivedPacketFromUpperLayer
vector 315  CAIN.ueD2DTx[3].nic.mac  CainHopMessageSent:vector  ETV
attr interpolationmode  none
attr title  "# of Sent CAIN hop message, vector"
vector 308  CAIN.ueD2DTx[3].nic.mac  sentPacketToLowerLayer:vector(packetBytes)  ETV
attr interpolationmode  none
attr source  sentPacketToLowerLayer
vector 601  CAIN.ueD2DTx[12].nic.mac  DropedHopMessage:vector  ETV
attr interpolationmode  none
attr title  "Droped Hop CAIN message due to RB not available, vector"
vector 1565  CAIN.ueD2DTx[20].tcp  tcpRcvQueueBytes  ETV
vector 1552  CAIN.ueD2DTx[20].tcp  "advertised window"  ETV
vector 1551  CAIN.ueD2DTx[20].tcp  "receive window"  ETV
vector 1554  CAIN.ueD2DTx[20].tcp  "sent ack"  ETV
vector 845  CAIN.ueD2DTx[20].nic.pdcpRrc  receivedPacketFromUpperLayer:vector(packetBytes)  ETV
attr interpolationmode  none
attr source  receivedPacketFromUpperLayer
vector 848  CAIN.ueD2DTx[20].nic.pdcpRrc  sentPacketToLowerLayer:vector(packetBytes)  ETV
attr interpolationmode  none
attr source  sentPacketToLowerLayer
vector 849  CAIN.ueD2DTx[20].nic.mac  receivedPacketFromUpperLayer:vector(packetBytes)  ETV
attr interpolationmode  none
attr source  receivedPacketFromUpperLayer
vector 859  CAIN.ueD2DTx[20].nic.mac  CainHopMessageSent:vector  ETV
attr interpolationmode  none
attr title  "# of Sent CAIN hop message, vector"
vector 852  CAIN.ueD2DTx[20].nic.mac  sentPacketToLowerLayer:vector(packetBytes)  ETV
attr interpolationmode  none
attr source  sentPacketToLowerLayer
vector 1589  CAIN.ueD2DTx[7].tcp  tcpRcvQueueBytes  ETV
vector 1576  CAIN.ueD2DTx[7].tcp  "advertised window"  ETV
vector 1575  CAIN.ueD2DTx[7].tcp  "receive window"  ETV
vector 1578  CAIN.ueD2DTx[7].tcp  "sent ack"  ETV
vector 429  CAIN.ueD2DTx[7].nic.pdcpRrc  receivedPacketFromUpperLayer:vector(packetBytes)  ETV
attr interpolationmode  none
attr source  receivedPacketFromUpperLayer
vector 432  CAIN.ueD2DTx[7].nic.pdcpRrc  sentPacketToLowerLayer:vector(packetBytes)  ETV
attr interpolationmode  none
attr source  sentPacketToLowerLayer
vector 433  CAIN.ueD2DTx[7].nic.mac  receivedPacketFromUpperLayer:vector(packetBytes)  ETV
attr interpolationmode  none
attr source  receivedPacketFromUpperLayer
vector 443  CAIN.ueD2DTx[7].nic.mac  CainHopMessageSent:vector  ETV
attr interpolationmode  none
attr title  "# of Sent CAIN hop message, vector"
vector 436  CAIN.ueD2DTx[7].nic.mac  sentPacketToLowerLayer:vector(packetBytes)  ETV
attr interpolationmode  none
attr source  sentPacketToLowerLayer
vector 1613  CAIN.ueD2DTx[18].tcp  tcpRcvQueueBytes  ETV
vector 1600  CAIN.ueD2DTx[18].tcp  "advertised window"  ETV
vector 1599  CAIN.ueD2DTx[18].tcp  "receive window"  ETV
vector 1602  CAIN.ueD2DTx[18].tcp  "sent ack"  ETV
vector 781  CAIN.ueD2DTx[18].nic.pdcpRrc  receivedPacketFromUpperLayer:vector(packetBytes)  ETV
attr interpolationmode  none
attr source  receivedPacketFromUpperLayer
vector 784  CAIN.ueD2DTx[18].nic.pdcpRrc  sentPacketToLowerLayer:vector(packetBytes)  ETV
attr interpolationmode  none
attr source  sentPacketToLowerLayer
vector 785  CAIN.ueD2DTx[18].nic.mac  receivedPacketFromUpperLayer:vector(packetBytes)  ETV
attr interpolationmode  none
attr source  receivedPacketFromUpperLayer
vector 795  CAIN.ueD2DTx[18].nic.mac  CainHopMessageSent:vector  ETV
attr interpolationmode  none
attr title  "# of Sent CAIN hop message, vector"
vector 788  CAIN.ueD2DTx[18].nic.mac  sentPacketToLowerLayer:vector(packetBytes)  ETV
attr interpolationmode  none
attr source  sentPacketToLowerLayer
vector 946  CAIN.ueD2DTx[23].nic.mac  receivedPacketFromLowerLayer:vector(packetBytes)  ETV
attr interpolationmode  none
attr source  receivedPacketFromLowerLayer
vector 948  CAIN.ueD2DTx[23].nic.mac  sentPacketToLowerLayer:vector(packetBytes)  ETV
attr interpolationmode  none
attr source  sentPacketToLowerLayer
vector 953  CAIN.ueD2DTx[23].nic.mac  DropedHopMessage:vector  ETV
attr interpolationmode  none
attr title  "Droped Hop CAIN message due to RB not available, vector"
vector 1637  CAIN.ueD2DTx[10].tcp  tcpRcvQueueBytes  ETV
vector 1624  CAIN.ueD2DTx[10].tcp  "advertised window"  ETV
vector 1623  CAIN.ueD2DTx[10].tcp  "receive window"  ETV
vector 1626  CAIN.ueD2DTx[10].tcp  "sent ack"  ETV
vector 525  CAIN.ueD2DTx[10].nic.pdcpRrc  receivedPacketFromUpperLayer:vector(packetBytes)  ETV
attr interpolationmode  none
attr source  receivedPacketFromUpperLayer
vector 528  CAIN.ueD2DTx[10].nic.pdcpRrc  sentPacketToLowerLayer:vector(packetBytes)  ETV
attr interpolationmode  none
attr source  sentPacketToLowerLayer
vector 529  CAIN.ueD2DTx[10].nic.mac  receivedPacketFromUpperLayer:vector(packetBytes)  ETV
attr interpolationmode  none
attr source  receivedPacketFromUpperLayer
vector 539  CAIN.ueD2DTx[10].nic.mac  CainHopMessageSent:vector  ETV
attr interpolationmode  none
attr title  "# of Sent CAIN hop message, vector"
vector 532  CAIN.ueD2DTx[10].nic.mac  sentPacketToLowerLayer:vector(packetBytes)  ETV
attr interpolationmode  none
attr source  sentPacketToLowerLayer
vector 1661  CAIN.ueD2DTx[8].tcp  tcpRcvQueueBytes  ETV
vector 1648  CAIN.ueD2DTx[8].tcp  "advertised window"  ETV
vector 1647  CAIN.ueD2DTx[8].tcp  "receive window"  ETV
vector 1650  CAIN.ueD2DTx[8].tcp  "sent ack"  ETV
vector 461  CAIN.ueD2DTx[8].nic.pdcpRrc  receivedPacketFromUpperLayer:vector(packetBytes)  ETV
attr interpolationmode  none
attr source  receivedPacketFromUpperLayer
vector 464  CAIN.ueD2DTx[8].nic.pdcpRrc  sentPacketToLowerLayer:vector(packetBytes)  ETV
attr interpolationmode  none
attr source  sentPacketToLowerLayer
vector 465  CAIN.ueD2DTx[8].nic.mac  receivedPacketFromUpperLayer:vector(packetBytes)  ETV
attr interpolationmode  none
attr source  receivedPacketFromUpperLayer
vector 1685  CAIN.ueD2DTx[9].tcp  tcpRcvQueueBytes  ETV
vector 1672  CAIN.ueD2DTx[9].tcp  "advertised window"  ETV
vector 1671  CAIN.ueD2DTx[9].tcp  "receive window"  ETV
vector 1674  CAIN.ueD2DTx[9].tcp  "sent ack"  ETV
vector 493  CAIN.ueD2DTx[9].nic.pdcpRrc  receivedPacketFromUpperLayer:vector(packetBytes)  ETV
attr interpolationmode  none
attr source  receivedPacketFromUpperLayer
vector 496  CAIN.ueD2DTx[9].nic.pdcpRrc  sentPacketToLowerLayer:vector(packetBytes)  ETV
attr interpolationmode  none
attr source  sentPacketToLowerLayer
vector 497  CAIN.ueD2DTx[9].nic.mac  receivedPacketFromUpperLayer:vector(packetBytes)  ETV
attr interpolationmode  none
attr source  receivedPacketFromUpperLayer
vector 474  CAIN.ueD2DTx[8].nic.mac  CainMessageSent:vector  ETV
attr interpolationmode  none
attr title  "# of Sent CAIN message, vector"
vector 500  CAIN.ueD2DTx[9].nic.mac  sentPacketToLowerLayer:vector(packetBytes)  ETV
attr interpolationmode  none
attr source  sentPacketToLowerLayer
vector 1709  CAIN.ueD2DTx[14].tcp  tcpRcvQueueBytes  ETV
vector 1696  CAIN.ueD2DTx[14].tcp  "advertised window"  ETV
vector 1695  CAIN.ueD2DTx[14].tcp  "receive window"  ETV
vector 1698  CAIN.ueD2DTx[14].tcp  "sent ack"  ETV
vector 653  CAIN.ueD2DTx[14].nic.pdcpRrc  receivedPacketFromUpperLayer:vector(packetBytes)  ETV
attr interpolationmode  none
attr source  receivedPacketFromUpperLayer
vector 656  CAIN.ueD2DTx[14].nic.pdcpRrc  sentPacketToLowerLayer:vector(packetBytes)  ETV
attr interpolationmode  none
attr source  sentPacketToLowerLayer
vector 657  CAIN.ueD2DTx[14].nic.mac  receivedPacketFromUpperLayer:vector(packetBytes)  ETV
attr interpolationmode  none
attr source  receivedPacketFromUpperLayer
vector 667  CAIN.ueD2DTx[14].nic.mac  CainHopMessageSent:vector  ETV
attr interpolationmode  none
attr title  "# of Sent CAIN hop message, vector"
vector 660  CAIN.ueD2DTx[14].nic.mac  sentPacketToLowerLayer:vector(packetBytes)  ETV
attr interpolationmode  none
attr source  sentPacketToLowerLayer
vector 1733  CAIN.ueD2DTx[22].tcp  tcpRcvQueueBytes  ETV
vector 1720  CAIN.ueD2DTx[22].tcp  "advertised window"  ETV
vector 1719  CAIN.ueD2DTx[22].tcp  "receive window"  ETV
vector 1722  CAIN.ueD2DTx[22].tcp  "sent ack"  ETV
vector 909  CAIN.ueD2DTx[22].nic.pdcpRrc  receivedPacketFromUpperLayer:vector(packetBytes)  ETV
attr interpolationmode  none
attr source  receivedPacketFromUpperLayer
vector 912  CAIN.ueD2DTx[22].nic.pdcpRrc  sentPacketToLowerLayer:vector(packetBytes)  ETV
attr interpolationmode  none
attr source  sentPacketToLowerLayer
vector 913  CAIN.ueD2DTx[22].nic.mac  receivedPacketFromUpperLayer:vector(packetBytes)  ETV
attr interpolationmode  none
attr source  receivedPacketFromUpperLayer
vector 923  CAIN.ueD2DTx[22].nic.mac  CainHopMessageSent:vector  ETV
attr interpolationmode  none
attr title  "# of Sent CAIN hop message, vector"
vector 916  CAIN.ueD2DTx[22].nic.mac  sentPacketToLowerLayer:vector(packetBytes)  ETV
attr interpolationmode  none
attr source  sentPacketToLowerLayer
vector 100  CAIN.eNodeB.nic.mac  CainMessage:vector  ETV
attr interpolationmode  none
attr title  "eNB received CAIN message, vector"
vector 498  CAIN.ueD2DTx[9].nic.mac  receivedPacketFromLowerLayer:vector(packetBytes)  ETV
attr interpolationmode  none
attr source  receivedPacketFromLowerLayer
vector 696  CAIN.ueD2DTx[15].nic.mac  DropedCainMessage:vector  ETV
attr interpolationmode  none
attr title  "Droped CAIN message due to RB not available, vector"
vector 499  CAIN.ueD2DTx[9].nic.mac  sentPacketToUpperLayer:vector(packetBytes)  ETV
attr interpolationmode  none
attr source  sentPacketToUpperLayer
vector 1461  CAIN.eNodeB1.sctp  "SendQueue of Association 5"  ETV
vector 1225  CAIN.eNodeB1.sctp  "TSN Sent 5:10.0.5.1"  ETV
vector 1232  CAIN.eNodeB1.sctp  "Outstanding Bytes 5:10.0.5.1"  ETV
vector 1030  CAIN.eNodeB1.sctp  "Outstanding Bytes 4:Total"  ETV
vector 1231  CAIN.eNodeB1.sctp  "Queued Sent Bytes 5:10.0.5.1"  ETV
vector 1029  CAIN.eNodeB1.sctp  "Queued Sent Bytes 4:Total"  ETV
vector 1074  CAIN.eNodeB.sctp  "TSN Received 1:10.0.5.2"  ETV
vector 1050  CAIN.eNodeB.sctp  "Queued Received Bytes 1:Total"  ETV
vector 1046  CAIN.eNodeB.sctp  "Advertised Receiver Window 1"  ETV
vector 1055  CAIN.eNodeB.sctp  "Number of Total Gap Blocks Stored 1"  ETV
vector 1056  CAIN.eNodeB.sctp  "Number of Revokable Gap Blocks Stored 1"  ETV
vector 1057  CAIN.eNodeB.sctp  "Number of Non-Revokable Gap Blocks Stored 1"  ETV
vector 1058  CAIN.eNodeB.sctp  "Number of Duplicate TSNs Stored 1"  ETV
vector 1062  CAIN.eNodeB.sctp  "Length of SACK Sent 1"  ETV
vector 1059  CAIN.eNodeB.sctp  "Number of Revokable Gap Blocks Sent 1"  ETV
vector 1060  CAIN.eNodeB.sctp  "Number of Non-Revokable Gap Blocks Sent 1"  ETV
vector 1061  CAIN.eNodeB.sctp  "Number of Duplicate TSNs Sent 1"  ETV
vector 1066  CAIN.eNodeB.sctp  "End to End Delay of Association 1"  ETV
vector 141  CAIN.eNodeB.x2App[0].client  rcvdPk:vector(packetBytes)  ETV
attr interpolationmode  none
attr source  rcvdPk
attr title  "packets received, vector(packetBytes)"
vector 1460  CAIN.eNodeB1.sctp  "Number of Gap Blocks in Last SACK of Association 5"  ETV
vector 1031  CAIN.eNodeB1.sctp  "Number of Revokable Gap Blocks in SACK 4"  ETV
vector 1032  CAIN.eNodeB1.sctp  "Number of Non-Revokable Gap Blocks in SACK 4"  ETV
vector 1242  CAIN.eNodeB1.sctp  "TSN Acked CumAck 5:10.0.5.1"  ETV
vector 1208  CAIN.eNodeB1.sctp  "Number of Gap Acked Chunks in Last SACK 5:10.0.2.2"  ETV
vector 1209  CAIN.eNodeB1.sctp  "Number of Non-Revokable Gap Acked Chunks in Last SACK 5:10.0.2.2"  ETV
vector 1210  CAIN.eNodeB1.sctp  "Number of Gap Missed Chunks in Last SACK 5:10.0.2.2"  ETV
vector 1181  CAIN.eNodeB1.sctp  "Number of Gap Acked Chunks in Last SACK 5:10.0.4.1"  ETV
vector 1182  CAIN.eNodeB1.sctp  "Number of Non-Revokable Gap Acked Chunks in Last SACK 5:10.0.4.1"  ETV
vector 1183  CAIN.eNodeB1.sctp  "Number of Gap Missed Chunks in Last SACK 5:10.0.4.1"  ETV
vector 1235  CAIN.eNodeB1.sctp  "Number of Gap Acked Chunks in Last SACK 5:10.0.5.1"  ETV
vector 1236  CAIN.eNodeB1.sctp  "Number of Non-Revokable Gap Acked Chunks in Last SACK 5:10.0.5.1"  ETV
vector 1237  CAIN.eNodeB1.sctp  "Number of Gap Missed Chunks in Last SACK 5:10.0.5.1"  ETV
vector 1041  CAIN.eNodeB1.sctp  "Arwnd in Last SACK 4"  ETV
vector 1244  CAIN.eNodeB1.sctp  "TSN PseudoCumAck 5:10.0.5.1"  ETV
vector 1245  CAIN.eNodeB1.sctp  "TSN RTXPseudoCumAck 5:10.0.5.1"  ETV
vector 1238  CAIN.eNodeB1.sctp  "Partial Bytes Acked 5:10.0.5.1"  ETV
vector 1757  CAIN.ueD2DTx[4].tcp  tcpRcvQueueBytes  ETV
vector 1744  CAIN.ueD2DTx[4].tcp  "advertised window"  ETV
vector 1743  CAIN.ueD2DTx[4].tcp  "receive window"  ETV
vector 1746  CAIN.ueD2DTx[4].tcp  "sent ack"  ETV
vector 333  CAIN.ueD2DTx[4].nic.pdcpRrc  receivedPacketFromUpperLayer:vector(packetBytes)  ETV
attr interpolationmode  none
attr source  receivedPacketFromUpperLayer
vector 336  CAIN.ueD2DTx[4].nic.pdcpRrc  sentPacketToLowerLayer:vector(packetBytes)  ETV
attr interpolationmode  none
attr source  sentPacketToLowerLayer
vector 337  CAIN.ueD2DTx[4].nic.mac  receivedPacketFromUpperLayer:vector(packetBytes)  ETV
attr interpolationmode  none
attr source  receivedPacketFromUpperLayer
vector 346  CAIN.ueD2DTx[4].nic.mac  CainMessageSent:vector  ETV
attr interpolationmode  none
attr title  "# of Sent CAIN message, vector"
vector 154  CAIN.eNodeB1.nic.mac  receivedPacketFromLowerLayer:vector(packetBytes)  ETV
attr interpolationmode  none
attr source  receivedPacketFromLowerLayer
vector 600  CAIN.ueD2DTx[12].nic.mac  DropedCainMessage:vector  ETV
attr interpolationmode  none
attr title  "Droped CAIN message due to RB not available, vector"
vector 1781  CAIN.ueD2DTx[6].tcp  tcpRcvQueueBytes  ETV
vector 1768  CAIN.ueD2DTx[6].tcp  "advertised window"  ETV
vector 1767  CAIN.ueD2DTx[6].tcp  "receive window"  ETV
vector 1770  CAIN.ueD2DTx[6].tcp  "sent ack"  ETV
vector 397  CAIN.ueD2DTx[6].nic.pdcpRrc  receivedPacketFromUpperLayer:vector(packetBytes)  ETV
attr interpolationmode  none
attr source  receivedPacketFromUpperLayer
vector 400  CAIN.ueD2DTx[6].nic.pdcpRrc  sentPacketToLowerLayer:vector(packetBytes)  ETV
attr interpolationmode  none
attr source  sentPacketToLowerLayer
vector 401  CAIN.ueD2DTx[6].nic.mac  receivedPacketFromUpperLayer:vector(packetBytes)  ETV
attr interpolationmode  none
attr source  receivedPacketFromUpperLayer
vector 404  CAIN.ueD2DTx[6].nic.mac  sentPacketToLowerLayer:vector(packetBytes)  ETV
attr interpolationmode  none
attr source  sentPacketToLowerLayer
vector 169  CAIN.eNodeB1.nic.mac  racpkt:vector  ETV
attr interpolationmode  none
attr title  "eNB received racpkt message, vector"
vector 170  CAIN.eNodeB1.nic.mac  racDistanceSignal:vector  ETV
attr interpolationmode  none
attr title  "Rac distance to enb, vector"
vector 171  CAIN.eNodeB1.nic.mac  racServedDevsSignal:vector  ETV
attr interpolationmode  none
attr title  "# of devices served on rac arriavall, vector"
vector 156  CAIN.eNodeB1.nic.mac  sentPacketToLowerLayer:vector(packetBytes)  ETV
attr interpolationmode  none
attr source  sentPacketToLowerLayer
vector 402  CAIN.ueD2DTx[6].nic.mac  receivedPacketFromLowerLayer:vector(packetBytes)  ETV
attr interpolationmode  none
attr source  receivedPacketFromLowerLayer
vector 1805  CAIN.ueD2DTx[13].tcp  tcpRcvQueueBytes  ETV
vector 1792  CAIN.ueD2DTx[13].tcp  "advertised window"  ETV
vector 1791  CAIN.ueD2DTx[13].tcp  "receive window"  ETV
vector 1794  CAIN.ueD2DTx[13].tcp  "sent ack"  ETV
vector 621  CAIN.ueD2DTx[13].nic.pdcpRrc  receivedPacketFromUpperLayer:vector(packetBytes)  ETV
attr interpolationmode  none
attr source  receivedPacketFromUpperLayer
vector 624  CAIN.ueD2DTx[13].nic.pdcpRrc  sentPacketToLowerLayer:vector(packetBytes)  ETV
attr interpolationmode  none
attr source  sentPacketToLowerLayer
vector 625  CAIN.ueD2DTx[13].nic.mac  receivedPacketFromUpperLayer:vector(packetBytes)  ETV
attr interpolationmode  none
attr source  receivedPacketFromUpperLayer
vector 635  CAIN.ueD2DTx[13].nic.mac  CainHopMessageSent:vector  ETV
attr interpolationmode  none
attr title  "# of Sent CAIN hop message, vector"
vector 628  CAIN.ueD2DTx[13].nic.mac  sentPacketToLowerLayer:vector(packetBytes)  ETV
attr interpolationmode  none
attr source  sentPacketToLowerLayer
vector 1829  CAIN.ueD2DTx[11].tcp  tcpRcvQueueBytes  ETV
vector 1816  CAIN.ueD2DTx[11].tcp  "advertised window"  ETV
vector 1815  CAIN.ueD2DTx[11].tcp  "receive window"  ETV
vector 1818  CAIN.ueD2DTx[11].tcp  "sent ack"  ETV
vector 557  CAIN.ueD2DTx[11].nic.pdcpRrc  receivedPacketFromUpperLayer:vector(packetBytes)  ETV
attr interpolationmode  none
attr source  receivedPacketFromUpperLayer
vector 560  CAIN.ueD2DTx[11].nic.pdcpRrc  sentPacketToLowerLayer:vector(packetBytes)  ETV
attr interpolationmode  none
attr source  sentPacketToLowerLayer
vector 561  CAIN.ueD2DTx[11].nic.mac  receivedPacketFromUpperLayer:vector(packetBytes)  ETV
attr interpolationmode  none
attr source  receivedPacketFromUpperLayer
vector 274  CAIN.ueD2DTx[2].nic.mac  receivedPacketFromLowerLayer:vector(packetBytes)  ETV
attr interpolationmode  none
attr source  receivedPacketFromLowerLayer
vector 276  CAIN.ueD2DTx[2].nic.mac  sentPacketToLowerLayer:vector(packetBytes)  ETV
attr interpolationmode  none
attr source  sentPacketToLowerLayer
vector 1853  CAIN.ueD2DTx[1].tcp  tcpRcvQueueBytes  ETV
vector 1840  CAIN.ueD2DTx[1].tcp  "advertised window"  ETV
vector 1839  CAIN.ueD2DTx[1].tcp  "receive window"  ETV
vector 1842  CAIN.ueD2DTx[1].tcp  "sent ack"  ETV
vector 237  CAIN.ueD2DTx[1].nic.pdcpRrc  receivedPacketFromUpperLayer:vector(packetBytes)  ETV
attr interpolationmode  none
attr source  receivedPacketFromUpperLayer
vector 240  CAIN.ueD2DTx[1].nic.pdcpRrc  sentPacketToLowerLayer:vector(packetBytes)  ETV
attr interpolationmode  none
attr source  sentPacketToLowerLayer
vector 241  CAIN.ueD2DTx[1].nic.mac  receivedPacketFromUpperLayer:vector(packetBytes)  ETV
attr interpolationmode  none
attr source  receivedPacketFromUpperLayer
vector 244  CAIN.ueD2DTx[1].nic.mac  sentPacketToLowerLayer:vector(packetBytes)  ETV
attr interpolationmode  none
attr source  sentPacketToLowerLayer
vector 1877  CAIN.ueD2DTx[15].tcp  tcpRcvQueueBytes  ETV
vector 1864  CAIN.ueD2DTx[15].tcp  "advertised window"  ETV
vector 1863  CAIN.ueD2DTx[15].tcp  "receive window"  ETV
vector 1866  CAIN.ueD2DTx[15].tcp  "sent ack"  ETV
vector 685  CAIN.ueD2DTx[15].nic.pdcpRrc  receivedPacketFromUpperLayer:vector(packetBytes)  ETV
attr interpolationmode  none
attr source  receivedPacketFromUpperLayer
vector 688  CAIN.ueD2DTx[15].nic.pdcpRrc  sentPacketToLowerLayer:vector(packetBytes)  ETV
attr interpolationmode  none
attr source  sentPacketToLowerLayer
vector 689  CAIN.ueD2DTx[15].nic.mac  receivedPacketFromUpperLayer:vector(packetBytes)  ETV
attr interpolationmode  none
attr source  receivedPacketFromUpperLayer
vector 242  CAIN.ueD2DTx[1].nic.mac  receivedPacketFromLowerLayer:vector(packetBytes)  ETV
attr interpolationmode  none
attr source  receivedPacketFromLowerLayer
vector 691  CAIN.ueD2DTx[15].nic.mac  sentPacketToUpperLayer:vector(packetBytes)  ETV
attr interpolationmode  none
attr source  sentPacketToUpperLayer
vector 1901  CAIN.ueD2DTx[5].tcp  tcpRcvQueueBytes  ETV
vector 1888  CAIN.ueD2DTx[5].tcp  "advertised window"  ETV
vector 1887  CAIN.ueD2DTx[5].tcp  "receive window"  ETV
vector 1890  CAIN.ueD2DTx[5].tcp  "sent ack"  ETV
vector 365  CAIN.ueD2DTx[5].nic.pdcpRrc  receivedPacketFromUpperLayer:vector(packetBytes)  ETV
attr interpolationmode  none
attr source  receivedPacketFromUpperLayer
vector 368  CAIN.ueD2DTx[5].nic.pdcpRrc  sentPacketToLowerLayer:vector(packetBytes)  ETV
attr interpolationmode  none
attr source  sentPacketToLowerLayer
vector 369  CAIN.ueD2DTx[5].nic.mac  receivedPacketFromUpperLayer:vector(packetBytes)  ETV
attr interpolationmode  none
attr source  receivedPacketFromUpperLayer
vector 1925  CAIN.ueD2DTx[12].tcp  tcpRcvQueueBytes  ETV
vector 1912  CAIN.ueD2DTx[12].tcp  "advertised window"  ETV
vector 1911  CAIN.ueD2DTx[12].tcp  "receive window"  ETV
vector 1914  CAIN.ueD2DTx[12].tcp  "sent ack"  ETV
vector 589  CAIN.ueD2DTx[12].nic.pdcpRrc  receivedPacketFromUpperLayer:vector(packetBytes)  ETV
attr interpolationmode  none
attr source  receivedPacketFromUpperLayer
vector 592  CAIN.ueD2DTx[12].nic.pdcpRrc  sentPacketToLowerLayer:vector(packetBytes)  ETV
attr interpolationmode  none
attr source  sentPacketToLowerLayer
vector 593  CAIN.ueD2DTx[12].nic.mac  receivedPacketFromUpperLayer:vector(packetBytes)  ETV
attr interpolationmode  none
attr source  receivedPacketFromUpperLayer
vector 1949  CAIN.ueD2DTx[0].tcp  tcpRcvQueueBytes  ETV
vector 1936  CAIN.ueD2DTx[0].tcp  "advertised window"  ETV
vector 1935  CAIN.ueD2DTx[0].tcp  "receive window"  ETV
vector 1938  CAIN.ueD2DTx[0].tcp  "sent ack"  ETV
vector 205  CAIN.ueD2DTx[0].nic.pdcpRrc  receivedPacketFromUpperLayer:vector(packetBytes)  ETV
attr interpolationmode  none
attr source  receivedPacketFromUpperLayer
vector 208  CAIN.ueD2DTx[0].nic.pdcpRrc  sentPacketToLowerLayer:vector(packetBytes)  ETV
attr interpolationmode  none
attr source  sentPacketToLowerLayer
vector 209  CAIN.ueD2DTx[0].nic.mac  receivedPacketFromUpperLayer:vector(packetBytes)  ETV
attr interpolationmode  none
attr source  receivedPacketFromUpperLayer
vector 212  CAIN.ueD2DTx[0].nic.mac  sentPacketToLowerLayer:vector(packetBytes)  ETV
attr interpolationmode  none
attr source  sentPacketToLowerLayer
vector 1973  CAIN.ueD2DTx[17].tcp  tcpRcvQueueBytes  ETV
vector 1960  CAIN.ueD2DTx[17].tcp  "advertised window"  ETV
vector 1959  CAIN.ueD2DTx[17].tcp  "receive window"  ETV
vector 1962  CAIN.ueD2DTx[17].tcp  "sent ack"  ETV
vector 749  CAIN.ueD2DTx[17].nic.pdcpRrc  receivedPacketFromUpperLayer:vector(packetBytes)  ETV
attr interpolationmode  none
attr source  receivedPacketFromUpperLayer
vector 752  CAIN.ueD2DTx[17].nic.pdcpRrc  sentPacketToLowerLayer:vector(packetBytes)  ETV
attr interpolationmode  none
attr source  sentPacketToLowerLayer
vector 753  CAIN.ueD2DTx[17].nic.mac  receivedPacketFromUpperLayer:vector(packetBytes)  ETV
attr interpolationmode  none
attr source  receivedPacketFromUpperLayer
vector 763  CAIN.ueD2DTx[17].nic.mac  CainHopMessageSent:vector  ETV
attr interpolationmode  none
attr title  "# of Sent CAIN hop message, vector"
vector 756  CAIN.ueD2DTx[17].nic.mac  sentPacketToLowerLayer:vector(packetBytes)  ETV
attr interpolationmode  none
attr source  sentPacketToLowerLayer
vector 595  CAIN.ueD2DTx[12].nic.mac  sentPacketToUpperLayer:vector(packetBytes)  ETV
attr interpolationmode  none
attr source  sentPacketToUpperLayer
vector 210  CAIN.ueD2DTx[0].nic.mac  receivedPacketFromLowerLayer:vector(packetBytes)  ETV
attr interpolationmode  none
attr source  receivedPacketFromLowerLayer
vector 530  CAIN.ueD2DTx[10].nic.mac  receivedPacketFromLowerLayer:vector(packetBytes)  ETV
attr interpolationmode  none
attr source  receivedPacketFromLowerLayer
vector 108  CAIN.eNodeB.nic.mac  ServedDevs:vector  ETV
attr interpolationmode  none
attr title  "# of devices served on cain forwarding, vector"
vector 109  CAIN.eNodeB.nic.mac  ServedHopDevs:vector  ETV
attr interpolationmode  none
attr title  "# of devices served on hop forwarding, vector"
vector 1997  CAIN.ueD2DTx[23].tcp  tcpRcvQueueBytes  ETV
vector 1984  CAIN.ueD2DTx[23].tcp  "advertised window"  ETV
vector 1983  CAIN.ueD2DTx[23].tcp  "receive window"  ETV
vector 1986  CAIN.ueD2DTx[23].tcp  "sent ack"  ETV
vector 941  CAIN.ueD2DTx[23].nic.pdcpRrc  receivedPacketFromUpperLayer:vector(packetBytes)  ETV
attr interpolationmode  none
attr source  receivedPacketFromUpperLayer
vector 944  CAIN.ueD2DTx[23].nic.pdcpRrc  sentPacketToLowerLayer:vector(packetBytes)  ETV
attr interpolationmode  none
attr source  sentPacketToLowerLayer
vector 945  CAIN.ueD2DTx[23].nic.mac  receivedPacketFromUpperLayer:vector(packetBytes)  ETV
attr interpolationmode  none
attr source  receivedPacketFromUpperLayer
vector 2021  CAIN.ueD2DTx[2].tcp  tcpRcvQueueBytes  ETV
vector 2008  CAIN.ueD2DTx[2].tcp  "advertised window"  ETV
vector 2007  CAIN.ueD2DTx[2].tcp  "receive window"  ETV
vector 2010  CAIN.ueD2DTx[2].tcp  "sent ack"  ETV
vector 269  CAIN.ueD2DTx[2].nic.pdcpRrc  receivedPacketFromUpperLayer:vector(packetBytes)  ETV
attr interpolationmode  none
attr source  receivedPacketFromUpperLayer
vector 272  CAIN.ueD2DTx[2].nic.pdcpRrc  sentPacketToLowerLayer:vector(packetBytes)  ETV
attr interpolationmode  none
attr source  sentPacketToLowerLayer
vector 273  CAIN.ueD2DTx[2].nic.mac  receivedPacketFromUpperLayer:vector(packetBytes)  ETV
attr interpolationmode  none
attr source  receivedPacketFromUpperLayer
vector 282  CAIN.ueD2DTx[2].nic.mac  CainMessageSent:vector  ETV
attr interpolationmode  none
attr title  "# of Sent CAIN message, vector"
vector 2045  CAIN.ueD2DTx[24].tcp  tcpRcvQueueBytes  ETV
vector 2032  CAIN.ueD2DTx[24].tcp  "advertised window"  ETV
vector 2031  CAIN.ueD2DTx[24].tcp  "receive window"  ETV
vector 2034  CAIN.ueD2DTx[24].tcp  "sent ack"  ETV
vector 973  CAIN.ueD2DTx[24].nic.pdcpRrc  receivedPacketFromUpperLayer:vector(packetBytes)  ETV
attr interpolationmode  none
attr source  receivedPacketFromUpperLayer
vector 976  CAIN.ueD2DTx[24].nic.pdcpRrc  sentPacketToLowerLayer:vector(packetBytes)  ETV
attr interpolationmode  none
attr source  sentPacketToLowerLayer
vector 977  CAIN.ueD2DTx[24].nic.mac  receivedPacketFromUpperLayer:vector(packetBytes)  ETV
attr interpolationmode  none
attr source  receivedPacketFromUpperLayer
vector 980  CAIN.ueD2DTx[24].nic.mac  sentPacketToLowerLayer:vector(packetBytes)  ETV
attr interpolationmode  none
attr source  sentPacketToLowerLayer
vector 947  CAIN.ueD2DTx[23].nic.mac  sentPacketToUpperLayer:vector(packetBytes)  ETV
attr interpolationmode  none
attr source  sentPacketToUpperLayer
vector 978  CAIN.ueD2DTx[24].nic.mac  receivedPacketFromLowerLayer:vector(packetBytes)  ETV
attr interpolationmode  none
attr source  receivedPacketFromLowerLayer
vector 2069  CAIN.ueD2DTx[19].tcp  tcpRcvQueueBytes  ETV
vector 2056  CAIN.ueD2DTx[19].tcp  "advertised window"  ETV
vector 2055  CAIN.ueD2DTx[19].tcp  "receive window"  ETV
vector 2058  CAIN.ueD2DTx[19].tcp  "sent ack"  ETV
vector 813  CAIN.ueD2DTx[19].nic.pdcpRrc  receivedPacketFromUpperLayer:vector(packetBytes)  ETV
attr interpolationmode  none
attr source  receivedPacketFromUpperLayer
vector 816  CAIN.ueD2DTx[19].nic.pdcpRrc  sentPacketToLowerLayer:vector(packetBytes)  ETV
attr interpolationmode  none
attr source  sentPacketToLowerLayer
vector 817  CAIN.ueD2DTx[19].nic.mac  receivedPacketFromUpperLayer:vector(packetBytes)  ETV
attr interpolationmode  none
attr source  receivedPacketFromUpperLayer
vector 827  CAIN.ueD2DTx[19].nic.mac  CainHopMessageSent:vector  ETV
attr interpolationmode  none
attr title  "# of Sent CAIN hop message, vector"
vector 820  CAIN.ueD2DTx[19].nic.mac  sentPacketToLowerLayer:vector(packetBytes)  ETV
attr interpolationmode  none
attr source  sentPacketToLowerLayer
vector 115  CAIN.eNodeB.nic.phy  averageCqiUlvect:vector  ETV
attr source  averageCqiUlvect
attr title  "Average Cqi reported in UL, vector"
attr unit  cqi
vector 986  CAIN.ueD2DTx[24].nic.mac  CainMessageSent:vector  ETV
attr interpolationmode  none
attr title  "# of Sent CAIN message, vector"
vector 730  CAIN.ueD2DTx[16].nic.mac  CainMessageSent:vector  ETV
attr interpolationmode  none
attr title  "# of Sent CAIN message, vector"
vector 306  CAIN.ueD2DTx[3].nic.mac  receivedPacketFromLowerLayer:vector(packetBytes)  ETV
attr interpolationmode  none
attr source  receivedPacketFromLowerLayer
vector 307  CAIN.ueD2DTx[3].nic.mac  sentPacketToUpperLayer:vector(packetBytes)  ETV
attr interpolationmode  none
attr source  sentPacketToUpperLayer
vector 434  CAIN.ueD2DTx[7].nic.mac  receivedPacketFromLowerLayer:vector(packetBytes)  ETV
attr interpolationmode  none
attr source  receivedPacketFromLowerLayer
vector 435  CAIN.ueD2DTx[7].nic.mac  sentPacketToUpperLayer:vector(packetBytes)  ETV
attr interpolationmode  none
attr source  sentPacketToUpperLayer
vector 531  CAIN.ueD2DTx[10].nic.mac  sentPacketToUpperLayer:vector(packetBytes)  ETV
attr interpolationmode  none
attr source  sentPacketToUpperLayer
vector 922  CAIN.ueD2DTx[22].nic.mac  CainMessageSent:vector  ETV
attr interpolationmode  none
attr title  "# of Sent CAIN message, vector"
vector 467  CAIN.ueD2DTx[8].nic.mac  sentPacketToUpperLayer:vector(packetBytes)  ETV
attr interpolationmode  none
attr source  sentPacketToUpperLayer
vector 403  CAIN.ueD2DTx[6].nic.mac  sentPacketToUpperLayer:vector(packetBytes)  ETV
attr interpolationmode  none
attr source  sentPacketToUpperLayer
vector 571  CAIN.ueD2DTx[11].nic.mac  CainHopMessageSent:vector  ETV
attr interpolationmode  none
attr title  "# of Sent CAIN hop message, vector"
vector 564  CAIN.ueD2DTx[11].nic.mac  sentPacketToLowerLayer:vector(packetBytes)  ETV
attr interpolationmode  none
attr source  sentPacketToLowerLayer
vector 243  CAIN.ueD2DTx[1].nic.mac  sentPacketToUpperLayer:vector(packetBytes)  ETV
attr interpolationmode  none
attr source  sentPacketToUpperLayer
vector 379  CAIN.ueD2DTx[5].nic.mac  CainHopMessageSent:vector  ETV
attr interpolationmode  none
attr title  "# of Sent CAIN hop message, vector"
vector 372  CAIN.ueD2DTx[5].nic.mac  sentPacketToLowerLayer:vector(packetBytes)  ETV
attr interpolationmode  none
attr source  sentPacketToLowerLayer
vector 173  CAIN.eNodeB1.nic.phy  averageCqiUlvect:vector  ETV
attr source  averageCqiUlvect
attr title  "Average Cqi reported in UL, vector"
attr unit  cqi
vector 218  CAIN.ueD2DTx[0].nic.mac  CainMessageSent:vector  ETV
attr interpolationmode  none
attr title  "# of Sent CAIN message, vector"
vector 626  CAIN.ueD2DTx[13].nic.mac  receivedPacketFromLowerLayer:vector(packetBytes)  ETV
attr interpolationmode  none
attr source  receivedPacketFromLowerLayer
vector 818  CAIN.ueD2DTx[19].nic.mac  receivedPacketFromLowerLayer:vector(packetBytes)  ETV
attr interpolationmode  none
attr source  receivedPacketFromLowerLayer
vector 634  CAIN.ueD2DTx[13].nic.mac  CainMessageSent:vector  ETV
attr interpolationmode  none
attr title  "# of Sent CAIN message, vector"
vector 819  CAIN.ueD2DTx[19].nic.mac  sentPacketToUpperLayer:vector(packetBytes)  ETV
attr interpolationmode  none
attr source  sentPacketToUpperLayer
1268	57290 24 175 175 0.0000001228 0.0000001228 1 0 0 0 0
1379	57314 28 260 260 0.0000006304 0.0000006304 1 65535 65535 65535 4294836225
1380	57342 27 260 260 0.0000006304 0.0000006304 1 8940 8940 8940 79923600
1381	57369 29 260 260 0.0000006304 0.0000006304 1 0.3725 0.3725 0.3725 0.13875625
1377	57398 24 260 260 0.0000006304 0.0000006304 1 3 3 3 9
1384	57422 24 260 260 0.0000006304 0.0000006304 1 1 1 1 1
1396	57446 24 188 188 0.0000003096 0.0000003096 1 0 0 0 0
1352	57470 28 260 260 0.0000006304 0.0000006304 1 65535 65535 65535 4294836225
1353	57498 27 260 260 0.0000006304 0.0000006304 1 8940 8940 8940 79923600
1354	57525 29 260 260 0.0000006304 0.0000006304 1 0.3725 0.3725 0.3725 0.13875625
1350	57554 24 260 260 0.0000006304 0.0000006304 1 3 3 3 9
1357	57578 24 260 260 0.0000006304 0.0000006304 1 1 1 1 1
1369	57602 24 188 188 0.0000003096 0.0000003096 1 0 0 0 0
1070	57626 28 260 260 0.0000006304 0.0000006304 1 65535 65535 65535 4294836225
1071	57654 27 260 260 0.0000006304 0.0000006304 1 8940 8940 8940 79923600
1072	57681 29 260 260 0.0000006304 0.0000006304 1 0.3725 0.3725 0.3725 0.13875625
1068	57710 48 260 327 0.0000006304 0.0000008564 2 1 3 4 10
1069	57758 31 327 327 0.0000008564 0.0000008564 1 2.26e-07 2.26e-07 2.26e-07 5.1076e-14
1074	57789 3900 4091 18694 0.0570000972 0.2570025916 135 2000 2134 279045 576991035
1077	61689 46 232 246 0.000000552 0.000000596 2 1 2 3 5
1076	61735 46 232 246 0.000000552 0.000000596 2 1 2 3 5
1078	61781 48 327 333 0.0000008564 0.0000009004 2 1 2 3 5
1087	61829 13 156 156 0 0 1 0 0 0 0
1046	61842 89 4091 32846 0.0570000972 0.4570025916 3 65533 65535 196603 12884246539
1050	61931 3575 4091 32846 0.0570000972 0.4570025916 138 0 240 272 58392
1055	65506 77 4091 32846 0.0570000972 0.4570025916 3 0 0 0 0
1056	65583 77 4091 32846 0.0570000972 0.4570025916 3 0 0 0 0
1057	65660 77 4091 32846 0.0570000972 0.4570025916 3 0 0 0 0
1058	65737 77 4091 32846 0.0570000972 0.4570025916 3 0 0 0 0
1059	65814 77 4091 32846 0.0570000972 0.4570025916 3 0 0 0 0
1060	65891 77 4091 32846 0.0570000972 0.4570025916 3 0 0 0 0
1061	65968 77 4091 32846 0.0570000972 0.4570025916 3 0 0 0 0
1062	66045 80 4091 32846 0.0570000972 0.4570025916 3 16 16 48 768
1064	66125 28 188 188 0.0000003096 0.0000003096 1 65535 65535 65535 4294836225
1066	66153 4694 4094 18815 0.0570000972 0.2570025916 135 9.72e-08 2.0012e-06 0.000244514 4.818896792e-10
1067	70847 13 156 156 0 0 1 0 0 0 0
1298	70860 27 203 203 0.000000458 0.000000458 1 65535 65535 65535 4294836225
1299	70887 26 203 203 0.000000458 0.000000458 1 8940 8940 8940 79923600
1300	70913 28 203 203 0.000000458 0.000000458 1 0.3725 0.3725 0.3725 0.13875625
1296	70941 23 203 203 0.000000458 0.000000458 1 3 3 3 9
1303	70964 23 203 203 0.000000458 0.000000458 1 1 1 1 1
1311	70987 76 750 29454 0.0070001912 0.4070026856 3 0 0 0 0
1312	71063 76 750 29454 0.0070001912 0.4070026856 3 0 0 0 0
1313	71139 76 750 29454 0.0070001912 0.4070026856 3 0 0 0 0
1315	71215 24 175 175 0.0000001228 0.0000001228 1 0 0 0 0
1271	71239 27 203 203 0.000000458 0.000000458 1 65535 65535 65535 4294836225
1272	71266 26 203 203 0.000000458 0.000000458 1 8940 8940 8940 79923600
1273	71292 28 203 203 0.000000458 0.000000458 1 0.3725 0.3725 0.3725 0.13875625
1269	71320 23 203 203 0.000000458 0.000000458 1 3 3 3 9
1276	71343 23 203 203 0.000000458 0.000000458 1 1 1 1 1
1284	71366 76 750 29454 0.0070001912 0.4070026856 3 0 0 0 0
1285	71442 76 750 29454 0.0070001912 0.4070026856 3 0 0 0 0
1286	71518 76 750 29454 0.0070001912 0.4070026856 3 0 0 0 0
1288	71594 24 175 175 0.0000001228 0.0000001228 1 0 0 0 0
1325	71618 57 203 81929 0.000000458 1.2070005904 2 65535 65535 131070 8589672450
1326	71675 55 203 81929 0.000000458 1.2070005904 2 8940 8940 17880 159847200
1327	71730 58 203 81929 0.000000458 1.2070005904 2 0.3725 23.84 24.2125 568.48435625
1323	71788 123 203 29454 0.000000458 0.4070026856 5 1 3 7 13
1324	71911 138 280 29454 0.0000006744 0.4070026856 4 1.912e-07 0.2000020952 0.400002902 0.080000997764633
1328	72049 3878 688 14738 0.007 0.2070005904 135 2000 2134 279045 576991035
1332	75927 48 298 312 0.0000007624 0.0000008064 2 1 2 3 5
1331	75975 48 298 312 0.0000007624 0.0000008064 2 1 2 3 5
1333	76023 48 280 290 0.0000006744 0.0000007184 2 1 2 3 5
1334	76071 7372 688 29454 0.007 0.4070026856 270 0 240 29194 4615500
1335	83443 7372 688 29454 0.007 0.4070026856 270 0 240 29194 4615500
1338	90815 76 750 29454 0.0070001912 0.4070026856 3 0 0 0 0
1339	90891 76 750 29454 0.0070001912 0.4070026856 3 0 0 0 0
1340	90967 76 750 29454 0.0070001912 0.4070026856 3 0 0 0 0
1341	91043 76 750 29454 0.0070001912 0.4070026856 3 0 0 0 0
1342	91119 24 175 175 0.0000001228 0.0000001228 1 0 0 0 0
1345	91143 85 750 29454 0.0070001912 0.4070026856 3 2000 2134 6148 12610152
1347	91228 76 750 29454 0.0070001912 0.4070026856 3 0 0 0 0
1348	91304 76 750 29454 0.0070001912 0.4070026856 3 0 0 0 0
1464	91380 76 750 29454 0.0070001912 0.4070026856 3 0 0 0 0
1465	91456 6159 688 14738 0.007 0.2070005904 270 0 120 14597 1153875
1008	97615 7372 688 29454 0.007 0.4070026856 270 0 240 29194 4615500
1007	104987 7372 688 29454 0.007 0.4070026856 270 0 240 29194 4615500
1009	112359 76 750 29454 0.0070001912 0.4070026856 3 0 0 0 0
1010	112435 76 750 29454 0.0070001912 0.4070026856 3 0 0 0 0
1019	112511 88 750 29454 0.0070001912 0.4070026856 3 65533 65535 196603 12884246539
1020	112599 116 175 29454 0.0000001228 0.4070026856 4 65533 65535 262138 17179082764
1023	112715 13 148 148 0 0 1 0 0 0 0
1165	112728 24 174 174 0.0000001228 0.0000001228 1 0 0 0 0
1433	112752 28 261 261 0.0000006304 0.0000006304 1 65535 65535 65535 4294836225
1434	112780 27 261 261 0.0000006304 0.0000006304 1 8940 8940 8940 79923600
1435	112807 29 261 261 0.0000006304 0.0000006304 1 0.3725 0.3725 0.3725 0.13875625
1431	112836 24 261 261 0.0000006304 0.0000006304 1 3 3 3 9
1438	112860 24 261 261 0.0000006304 0.0000006304 1 1 1 1 1
1450	112884 24 189 189 0.0000003096 0.0000003096 1 0 0 0 0
1406	112908 28 261 261 0.0000006304 0.0000006304 1 65535 65535 65535 4294836225
1407	112936 27 261 261 0.0000006304 0.0000006304 1 8940 8940 8940 79923600
1408	112963 29 261 261 0.0000006304 0.0000006304 1 0.3725 0.3725 0.3725 0.13875625
1404	112992 24 261 261 0.0000006304 0.0000006304 1 3 3 3 9
1411	113016 24 261 261 0.0000006304 0.0000006304 1 1 1 1 1
1423	113040 24 189 189 0.0000003096 0.0000003096 1 0 0 0 0
1119	113064 28 261 261 0.0000006304 0.0000006304 1 65535 65535 65535 4294836225
1120	113092 27 261 261 0.0000006304 0.0000006304 1 8940 8940 8940 79923600
1121	113119 29 261 261 0.0000006304 0.0000006304 1 0.3725 0.3725 0.3725 0.13875625
1117	113148 48 261 326 0.0000006304 0.0000008564 2 1 3 4 10
1118	113196 31 326 326 0.0000008564 0.0000008564 1 2.26e-07 2.26e-07 2.26e-07 5.1076e-14
1123	113227 3885 738 14745 0.0070000972 0.2070025916 135 2000 2134 279045 576991035
1126	117112 46 233 247 0.000000552 0.000000596 2 1 2 3 5
1125	117158 46 233 247 0.000000552 0.000000596 2 1 2 3 5
1127	117204 48 326 332 0.0000008564 0.0000009004 2 1 2 3 5
1136	117252 13 157 157 0 0 1 0 0 0 0
1095	117265 88 738 29447 0.0070000972 0.4070025916 3 65533 65535 196603 12884246539
1099	117353 3559 738 29447 0.0070000972 0.4070025916 138 0 240 272 58392
1104	120912 76 738 29447 0.0070000972 0.4070025916 3 0 0 0 0
1105	120988 76 738 29447 0.0070000972 0.4070025916 3 0 0 0 0
1106	121064 76 738 29447 0.0070000972 0.4070025916 3 0 0 0 0
1107	121140 76 738 29447 0.0070000972 0.4070025916 3 0 0 0 0
1108	121216 76 738 29447 0.0070000972 0.4070025916 3 0 0 0 0
1109	121292 76 738 29447 0.0070000972 0.4070025916 3 0 0 0 0
1110	121368 76 738 29447 0.0070000972 0.4070025916 3 0 0 0 0
1111	121444 79 738 29447 0.0070000972 0.4070025916 3 16 16 48 768
1113	121523 28 189 189 0.0000003096 0.0000003096 1 65535 65535 65535 4294836225
1115	121551 4679 741 14866 0.0070000972 0.2070025916 135 9.72e-08 2.0012e-06 0.000244514 4.818896792e-10
1116	126230 13 157 157 0 0 1 0 0 0 0
1195	126243 27 202 202 0.000000458 0.000000458 1 65535 65535 65535 4294836225
1196	126270 26 202 202 0.000000458 0.000000458 1 8940 8940 8940 79923600
1197	126296 28 202 202 0.000000458 0.000000458 1 0.3725 0.3725 0.3725 0.13875625
1193	126324 23 202 202 0.000000458 0.000000458 1 3 3 3 9
1200	126347 23 202 202 0.000000458 0.000000458 1 1 1 1 1
1208	126370 77 4103 32853 0.0570001912 0.4570026856 3 0 0 0 0
1209	126447 77 4103 32853 0.0570001912 0.4570026856 3 0 0 0 0
1210	126524 77 4103 32853 0.0570001912 0.4570026856 3 0 0 0 0
1212	126601 24 174 174 0.0000001228 0.0000001228 1 0 0 0 0
1168	126625 27 202 202 0.000000458 0.000000458 1 65535 65535 65535 4294836225
1169	126652 26 202 202 0.000000458 0.000000458 1 8940 8940 8940 79923600
1170	126678 28 202 202 0.000000458 0.000000458 1 0.3725 0.3725 0.3725 0.13875625
1166	126706 23 202 202 0.000000458 0.000000458 1 3 3 3 9
1173	126729 23 202 202 0.000000458 0.000000458 1 1 1 1 1
1181	126752 77 4103 32853 0.0570001912 0.4570026856 3 0 0 0 0
1182	126829 77 4103 32853 0.0570001912 0.4570026856 3 0 0 0 0
1183	126906 77 4103 32853 0.0570001912 0.4570026856 3 0 0 0 0
1185	126983 24 174 174 0.0000001228 0.0000001228 1 0 0 0 0
1222	127007 57 202 85185 0.000000458 1.2570005904 2 65535 65535 131070 8589672450
1223	127064 55 202 85185 0.000000458 1.2570005904 2 8940 8940 17880 159847200
1224	127119 58 202 85185 0.000000458 1.2570005904 2 0.3725 23.84 24.2125 568.48435625
1220	127177 124 202 32853 0.000000458 0.4570026856 5 1 3 7 13
1221	127301 139 281 32853 0.0000006744 0.4570026856 4 1.912e-07 0.2000020952 0.400002902 0.080000997764633
1225	127440 3893 4013 18687 0.057 0.2570005904 135 2000 2134 279045 576991035
1229	131333 48 299 313 0.0000007624 0.0000008064 2 1 2 3 5
1228	131381 48 299 313 0.0000007624 0.0000008064 2 1 2 3 5
1230	131429 48 281 291 0.0000006744 0.0000007184 2 1 2 3 5
1231	131477 7388 4013 32853 0.057 0.4570026856 270 0 240 29194 4615500
1232	138865 7388 4013 32853 0.057 0.4570026856 270 0 240 29194 4615500
1235	146253 77 4103 32853 0.0570001912 0.4570026856 3 0 0 0 0
1236	146330 77 4103 32853 0.0570001912 0.4570026856 3 0 0 0 0
1237	146407 77 4103 32853 0.0570001912 0.4570026856 3 0 0 0 0
1238	146484 77 4103 32853 0.0570001912 0.4570026856 3 0 0 0 0
1239	146561 24 174 174 0.0000001228 0.0000001228 1 0 0 0 0
1242	146585 86 4103 32853 0.0570001912 0.4570026856 3 2000 2134 6148 12610152
1244	146671 77 4103 32853 0.0570001912 0.4570026856 3 0 0 0 0
1245	146748 77 4103 32853 0.0570001912 0.4570026856 3 0 0 0 0
1460	146825 77 4103 32853 0.0570001912 0.4570026856 3 0 0 0 0
1461	146902 6189 4013 18687 0.057 0.2570005904 270 0 120 14597 1153875
1030	153091 7388 4013 32853 0.057 0.4570026856 270 0 240 29194 4615500
1029	160479 7388 4013 32853 0.057 0.4570026856 270 0 240 29194 4615500
1031	167867 77 4103 32853 0.0570001912 0.4570026856 3 0 0 0 0
1032	167944 77 4103 32853 0.0570001912 0.4570026856 3 0 0 0 0
1041	168021 89 4103 32853 0.0570001912 0.4570026856 3 65533 65535 196603 12884246539
1042	168110 117 174 32853 0.0000001228 0.4570026856 4 65533 65535 262138 17179082764
1045	168227 13 153 153 0 0 1 0 0 0 0
8	168240 8 0 0 0 0 1 0 0 0 0
9	168248 8 0 0 0 0 1 0 0 0 0
24	168256 9 0 0 0 0 1 0 0 0 0
25	168265 9 0 0 0 0 1 0 0 0 0
35	168274 9 0 0 0 0 1 0 0 0 0
36	168283 9 0 0 0 0 1 0 0 0 0
56	168292 9 0 0 0 0 1 0 0 0 0
57	168301 9 0 0 0 0 1 0 0 0 0
67	168310 9 0 0 0 0 1 0 0 0 0
68	168319 9 0 0 0 0 1 0 0 0 0
78	168328 9 0 0 0 0 1 0 0 0 0
79	168337 9 0 0 0 0 1 0 0 0 0
96	168346 855557 418 821055 0.002 10 48223 0 0 0 0
98	1023903 367521 1260 821045 0.016 10 20633 0 0 0 0
100	1391424 78658 3096 821045 0.045 10 3670 1 3670 6736285 16483689395
101	1470082 218256 1260 820965 0.016 9.999 10028 1 10028 50285406 336191462714
106	1688338 568245 1260 821055 0.016 10 27318 285 885 19514408 14456925328
108	2256583 69139 6848 820887 0.093 9.998 3659 2 8 25614 188786
109	2325722 196426 6897 821055 0.094 10 9961 14 17 164564 2725996
111	2522148 678114 1260 821055 0.016 10 30217 1 30217 456548653 9197172614685
112	3200262 628786 1260 821055 0.016 10 30217 104 630 12790752 5806745854
113	3829048 568352 1260 821055 0.016 10 30217 0 0 0 0
115	4397400 24908 7520 820284 0.102 9.992 1321 4 4 5284 21136
120	4422308 10 0 0 0 0 1 0 0 0 0
121	4422318 10 0 0 0 0 1 0 0 0 0
128	4422328 421 164 32848 0 0.4570025916 18 36 2432 3724 6088720
130	4422749 438 164 32848 0 0.4570025916 18 0 8.8e-08 3.088e-07 1.946112e-14
131	4423187 280 0 283 0 0.0000007124 13 0 2 10 14
132	4423467 828 0 32850 0 0.4570026356 37 0 1 18 18
133	4424295 423 166 32849 0 0.4570025916 18 43 2439 3850 6141738
134	4424718 442 171 29452 0.0000001228 0.4070026856 18 43 2439 3850 6141738
137	4425160 423 166 32849 0 0.4570025916 18 36 2432 3724 6088720
138	4425583 442 171 29452 0.0000001228 0.4070026856 18 36 2432 3724 6088720
141	4426025 3360 4096 19054 0.0570000972 0.2570025916 135 2 2 270 540
154	4429385 560890 4440 821024 0.062 10 30044 0 0 0 0
156	4990275 177089 4688 821024 0.065 10 9446 0 0 0 0
169	5167364 92158 4688 821024 0.065 10 4268 1 4268 9110046 25924154234
170	5259522 88997 4688 821024 0.065 10 4268 154 674 2228288 1261149708
171	5348519 80461 4688 821024 0.065 10 4268 0 0 0 0
173	5428980 17499 205559 820957 3.094 9.999 921 2 4 1847 3711
178	5446479 10 0 0 0 0 1 0 0 0 0
179	5446489 10 0 0 0 0 1 0 0 0 0
186	5446499 422 165 29449 0 0.4070025916 18 36 2432 3724 6088720
188	5446921 439 165 29449 0 0.4070025916 18 0 8.8e-08 3.088e-07 1.946112e-14
189	5447360 280 0 282 0 0.0000007124 13 0 2 10 14
190	5447640 830 0 29451 0 0.4070026356 37 0 1 18 18
191	5448470 424 167 29450 0 0.4070025916 18 43 2439 3850 6141738
192	5448894 441 170 32851 0.0000001228 0.4570026856 18 43 2439 3850 6141738
195	5449335 424 167 29450 0 0.4070025916 18 36 2432 3724 6088720
196	5449759 441 170 32851 0.0000001228 0.4570026856 18 36 2432 3724 6088720
199	5450200 3345 743 15105 0.0070000972 0.2070025916 135 2 2 270 540
205	5453545 85 6436 731489 0.088660440601 9.088660440601 3 44 44 132 5808
208	5453630 85 6436 731489 0.088660440601 9.088660440601 3 45 45 135 6075
209	5453715 85 6439 731492 0.088660440601 9.088660440601 3 45 45 135 6075
210	5453800 52552 6632 820871 0.091 9.998 2766 0 0 0 0
212	5506352 43793 6444 820903 0.089 9.999 2305 0 0 0 0
218	5550145 9510 206454 818915 3.104 9.979 458 1 458 105111 32128929
231	5559655 163 0 7719 0 0.105 10 1 2 19 37
237	5559818 85 5101 729626 0.070868452201 9.070868452201 3 44 44 132 5808
240	5559903 85 5101 729626 0.070868452201 9.070868452201 3 45 45 135 6075
241	5559988 239 5104 731619 0.070868452201 9.09 11 8 45 241 7553
242	5560227 321 5291 731538 0.073 9.089 17 0 0 0 0
243	5560548 148 203774 731615 3.075 9.09 8 0 0 0 0
244	5560696 169 5108 731166 0.071 9.086 9 0 0 0 0
263	5560865 163 0 7720 0 0.105 10 1 2 19 37
269	5561028 85 6958 732201 0.095104090585 9.095104090585 3 44 44 132 5808
272	5561113 85 6958 732201 0.095104090585 9.095104090585 3 45 45 135 6075
273	5561198 85 6961 732204 0.095104090585 9.095104090585 3 45 45 135 6075
274	5561283 53886 5048 820616 0.069 9.996 2858 0 0 0 0
276	5615169 80142 5048 820616 0.069 9.996 4240 0 0 0 0
282	5695311 29295 6991 820575 0.096 9.996 1382 1 1382 955653 880793515
295	5724606 163 0 7721 0 0.105 10 1 2 19 37
301	5724769 85 1879 725532 0.027262016546 9.027262016546 3 44 44 132 5808
304	5724854 85 1879 725532 0.027262016546 9.027262016546 3 45 45 135 6075
305	5724939 26571 1882 820692 0.027262016546 9.997 1397 0 45 135 6075
306	5751510 105201 199106 821039 3.014 10 5578 0 0 0 0
307	5856711 26486 200232 820688 3.032 9.997 1394 0 0 0 0
308	5883197 79598 1888 820955 0.028 9.999 4190 0 0 0 0
315	5962795 102 1888 3629 0.028 0.053 6 1 6 21 91
327	5962897 163 0 7722 0 0.105 10 1 2 19 37
333	5963060 85 4227 728441 0.058969033093 9.058969033093 3 44 44 132 5808
336	5963145 85 4227 728441 0.058969033093 9.058969033093 3 45 45 135 6075
337	5963230 85 4230 728444 0.058969033093 9.058969033093 3 45 45 135 6075
338	5963315 128696 1771 821036 0.025 10 6957 0 0 0 0
340	6092011 166185 1771 821036 0.025 10 8946 0 0 0 0
346	6258196 42349 4237 820908 0.059 9.999 1989 1 1989 1979055 2624886615
359	6300545 10 0 0 0 0 1 1 1 1 1
365	6300555 85 5835 730692 0.080385986073 9.080385986073 3 44 44 132 5808
368	6300640 85 5835 730692 0.080385986073 9.080385986073 3 45 45 135 6075
369	6300725 85 5838 730695 0.080385986073 9.080385986073 3 45 45 135 6075
372	6300810 26296 204330 820579 3.081 9.996 1384 0 0 0 0
379	6327106 29341 204330 820579 3.081 9.996 1384 1 1384 958420 884621660
391	6356447 163 0 7723 0 0.105 10 1 2 19 37
397	6356610 85 4611 728942 0.063074826114 9.063074826114 3 44 44 132 5808
400	6356695 85 4611 728942 0.063074826114 9.063074826114 3 45 45 135 6075
401	6356780 3697 4614 820780 0.063074826114 9.998 193 0 45 186 7236
402	6360477 35054 4761 820732 0.066 9.997 1856 0 0 0 0
403	6395531 3610 203113 820776 3.068 9.998 190 0 0 0 0
404	6399141 31463 4624 820911 0.064 9.999 1667 0 0 0 0
423	6430604 163 0 7724 0 0.105 10 1 2 19 37
429	6430767 85 2211 726010 0.032193433337 9.032193433337 3 44 44 132 5808
432	6430852 85 2211 726010 0.032193433337 9.032193433337 3 45 45 135 6075
433	6430937 6738 2214 820700 0.032193433337 9.997 353 0 45 186 7020
434	6437675 13125 200502 821041 3.035 10 701 0 0 0 0
435	6450800 6650 200626 820696 3.037 9.997 350 0 0 0 0
436	6457450 6754 2225 820781 0.033 9.998 356 0 0 0 0
443	6464204 85 2225 3634 0.033 0.053 5 1 5 15 55
455	6464289 163 0 7725 0 0.105 10 1 2 19 37
461	6464452 85 2826 726901 0.042654495104 9.042654495104 3 44 44 132 5808
464	6464537 85 2826 726901 0.042654495104 9.042654495104 3 45 45 135 6075
465	6464622 125 2829 727335 0.042654495104 9.047 5 45 47 229 10493
466	6464747 8827 1196 819090 0.014 9.98 480 0 0 0 0
467	6473574 38 201411 727331 3.047 9.047 2 0 0 0 0
468	6473612 8840 1196 819090 0.014 9.98 481 0 0 0 0
474	6482452 51 2920 3636 0.043 0.053 3 1 3 6 14
487	6482503 163 0 7726 0 0.105 10 1 2 19 37
493	6482666 85 2834 726908 0.042742808261 9.042742808261 3 44 44 132 5808
496	6482751 85 2834 726908 0.042742808261 9.042742808261 3 45 45 135 6075
497	6482836 580 2837 731339 0.042742808261 9.087 30 7 45 324 7398
498	6483416 25500 3099 821049 0.045 10 1374 0 0 0 0
499	6508916 495 3177 731335 0.047 9.087 27 0 0 0 0
500	6509411 25017 2922 821049 0.043 10 1347 0 0 0 0
519	6534428 10 0 0 0 0 1 1 1 1 1
525	6534438 85 2534 726443 0.037255783586 9.037255783586 3 44 44 132 5808
528	6534523 85 2534 726443 0.037255783586 9.037255783586 3 45 45 135 6075
529	6534608 26496 2537 820707 0.037255783586 9.997 1393 0 45 178 6496
530	6561104 104628 6734 821043 0.092 10 5548 0 0 0 0
531	6665732 26410 200996 820703 3.042 9.997 1390 0 0 0 0
532	6692142 79066 2552 820785 0.038 9.998 4162 0 0 0 0
539	6771208 68 2552 3640 0.038 0.053 4 1 4 10 30
551	6771276 163 0 7727 0 0.105 10 1 2 19 37
557	6771439 85 4948 729463 0.068596436554 9.068596436554 3 44 44 132 5808
560	6771524 85 4948 729463 0.068596436554 9.068596436554 3 45 45 135 6075
561	6771609 85 4951 729466 0.068596436554 9.068596436554 3 45 45 135 6075
564	6771694 26353 203243 820917 3.069 9.999 1387 0 0 0 0
571	6798047 29407 203243 820917 3.069 9.999 1387 1 1387 962578 890384650
583	6827454 163 0 7728 0 0.105 10 1 2 19 37
589	6827617 85 6279 731311 0.086132885579 9.086132885579 3 44 44 132 5808
592	6827702 85 6279 731311 0.086132885579 9.086132885579 3 45 45 135 6075
593	6827787 201 6282 732252 0.086132885579 9.096 9 23 45 282 9690
594	6827988 335555 1836 821021 0.026 10 17881 0 0 0 0
595	7163543 110 6600 732248 0.091 9.096 6 0 0 0 0
596	7163653 334683 1836 821021 0.026 10 17830 0 0 0 0
600	7498336 102 4503 6383 0.062 0.087 6 1 6 21 91
601	7498438 693 1915 6480 0.028 0.089 39 1 39 780 20540
615	7499131 10 0 0 0 0 1 1 1 1 1
621	7499141 85 4842 729325 0.067512416122 9.067512416122 3 44 44 132 5808
624	7499226 85 4842 729325 0.067512416122 9.067512416122 3 45 45 135 6075
625	7499311 85 4845 729328 0.067512416122 9.067512416122 3 45 45 135 6075
626	7499396 56939 360320 821030 4.907 10 3057 0 0 0 0
628	7556335 83309 4862 821030 0.068 10 4445 0 0 0 0
634	7639644 21311 360386 820789 4.908 9.998 1019 1 1019 519690 353215970
635	7660955 7639 4862 359976 0.068 4.903 369 1 369 68265 16815945
647	7668594 163 0 7729 0 0.105 10 1 2 19 37
653	7668757 85 2954 727007 0.043019576671 9.043019576671 3 44 44 132 5808
656	7668842 85 2954 727007 0.043019576671 9.043019576671 3 45 45 135 6075
657	7668927 85 2957 727010 0.043019576671 9.043019576671 3 45 45 135 6075
660	7669012 26499 2974 820921 0.044 9.999 1395 0 0 0 0
667	7695511 29577 2974 820921 0.044 9.999 1395 1 1395 973710 905874870
679	7725088 163 0 7730 0 0.105 10 1 2 19 37
685	7725251 85 5154 729713 0.071731106779 9.071731106779 3 44 44 132 5808
688	7725336 85 5154 729713 0.071731106779 9.071731106779 3 45 45 135 6075
689	7725421 6466 5157 820594 0.071731106779 9.996 345 0 45 239 7957
690	7731887 13306 1228 821016 0.015 10 728 0 0 0 0
691	7745193 6376 5520 820590 0.076 9.996 342 0 0 0 0
692	7751569 6744 1228 820712 0.015 9.997 364 0 0 0 0
696	7758313 51 3159 3961 0.046 0.056 3 1 3 6 14
697	7758364 315 1292 4269 0.017 0.059 18 1 18 171 2109
711	7758679 10 0 0 0 0 1 1 1 1 1
717	7758689 85 1032 724168 0.012314120021 9.012314120021 3 44 44 132 5808
720	7758774 85 1032 724168 0.012314120021 9.012314120021 3 45 45 135 6075
721	7758859 85 1035 724171 0.012314120021 9.012314120021 3 45 45 135 6075
724	7758944 26715 1124 820793 0.013 9.998 1407 0 0 0 0
730	7785659 29649 198983 820793 3.013 9.998 1398 1 1398 977901 911729699
731	7815308 153 1124 3647 0.013 0.053 9 1 9 45 285
743	7815461 163 0 7731 0 0.105 10 1 2 19 37
749	7815624 85 6485 731579 0.089070481334 9.089070481334 3 44 44 132 5808
752	7815709 85 6485 731579 0.089070481334 9.089070481334 3 45 45 135 6075
753	7815794 85 6488 731582 0.089070481334 9.089070481334 3 45 45 135 6075
756	7815879 25518 6533 821000 0.09 10 1384 0 0 0 0
763	7841397 28563 6533 821000 0.09 10 1384 1 1384 958420 884621660
775	7869960 163 0 7732 0 0.105 10 1 2 19 37
781	7870123 85 2295 726156 0.034967919982 9.034967919982 3 44 44 132 5808
784	7870208 85 2295 726156 0.034967919982 9.034967919982 3 45 45 135 6075
785	7870293 85 2298 726159 0.034967919982 9.034967919982 3 45 45 135 6075
788	7870378 36458 2319 821002 0.035 10 1994 0 0 0 0
795	7906836 41333 2319 821002 0.035 10 1994 1 1994 1989015 2644726945
807	7948169 10 0 0 0 0 1 1 1 1 1
813	7948179 85 7347 732654 0.099035166858 9.099035166858 3 44 44 132 5808
816	7948264 85 7347 732654 0.099035166858 9.099035166858 3 45 45 135 6075
817	7948349 19389 7350 820931 0.099035166858 9.999 1019 0 45 135 6075
818	7967738 192886 360331 821052 4.907 10 10182 0 0 0 0
819	8160624 19304 360476 820927 4.909 9.999 1016 0 0 0 0
820	8179928 190464 7389 821052 0.1 10 10128 0 0 0 0
827	8370392 19249 7389 359728 0.1 4.9 961 1 961 462241 296296481
839	8389641 10 0 0 0 0 1 1 1 1 1
845	8389651 85 1920 725601 0.028303043828 9.028303043828 3 44 44 132 5808
848	8389736 85 1920 725601 0.028303043828 9.028303043828 3 45 45 135 6075
849	8389821 85 1923 725604 0.028303043828 9.028303043828 3 45 45 135 6075
852	8389906 37591 1946 820932 0.029 9.999 1995 0 0 0 0
859	8427497 42469 1946 820932 0.029 9.999 1995 1 1995 1991010 2648706970
871	8469966 10 0 0 0 0 1 1 1 1 1
877	8469976 85 1609 725126 0.023785309079 9.023785309079 3 44 44 132 5808
880	8470061 85 1609 725126 0.023785309079 9.023785309079 3 45 45 135 6075
881	8470146 85 1612 725129 0.023785309079 9.023785309079 3 45 45 135 6075
884	8470231 37608 1661 820934 0.024 9.999 1996 0 0 0 0
891	8507839 42489 1661 820934 0.024 9.999 1996 1 1996 1993006 2652690986
903	8550328 10 0 0 0 0 1 1 1 1 1
909	8550338 85 3044 727154 0.044464713358 9.044464713358 3 44 44 132 5808
912	8550423 85 3044 727154 0.044464713358 9.044464713358 3 45 45 135 6075
913	8550508 85 3047 727157 0.044464713358 9.044464713358 3 45 45 135 6075
916	8550593 25719 3074 821008 0.045 10 1395 0 0 0 0
922	8576312 28738 201296 821008 3.045 10 1392 1 1392 969528 900045160
923	8605050 50 3074 3846 0.045 0.055 3 1 3 6 14
935	8605100 163 0 7733 0 0.105 10 1 2 19 37
941	8605263 85 6904 732113 0.094999797184 9.094999797184 3 44 44 132 5808
944	8605348 85 6904 732113 0.094999797184 9.094999797184 3 45 45 135 6075
945	8605433 123 6907 732116 0.094999797184 9.094999797184 5 45 47 229 10493
946	8605556 3813 2339 820749 0.035 9.997 203 0 0 0 0
947	8609369 36 7323 206048 0.099 3.099 2 0 0 0 0
948	8609405 3541 2339 821010 0.035 10 193 0 0 0 0
953	8612946 153 2527 4085 0.037 0.057 9 1 9 45 285
967	8613099 10 0 0 0 0 1 1 1 1 1
973	8613109 85 7046 732325 0.096481279186 9.096481279186 3 44 44 132 5808
976	8613194 85 7046 732325 0.096481279186 9.096481279186 3 45 45 135 6075
977	8613279 85 7049 732328 0.096481279186 9.096481279186 3 45 45 135 6075
978	8613364 73983 7335 820608 0.099 9.996 3963 0 0 0 0
980	8687347 62259 7103 820722 0.097 9.997 3302 0 0 0 0
986	8749606 13658 8919 820722 0.122 9.997 660 1 660 218130 96049910
999	8763264 10 0 0 0 0 1 1 1 1 1
1479	8763274 94 1029 724165 0.012314120021 9.012314120021 3 7504 7504 22512 168930048
1480	8763368 94 1029 724165 0.012314120021 9.012314120021 3 7504 7504 22512 168930048
1482	8763462 85 1029 724165 0.012314120021 9.012314120021 3 0 0 0 0
1493	8763547 85 1029 724165 0.012314120021 9.012314120021 3 0 0 0 0
1503	8763632 94 1606 725123 0.023785309079 9.023785309079 3 7504 7504 22512 168930048
1504	8763726 94 1606 725123 0.023785309079 9.023785309079 3 7504 7504 22512 168930048
1506	8763820 85 1606 725123 0.023785309079 9.023785309079 3 0 0 0 0
1517	8763905 85 1606 725123 0.023785309079 9.023785309079 3 0 0 0 0
1527	8763990 94 1876 725529 0.027262016546 9.027262016546 3 7504 7504 22512 168930048
1528	8764084 94 1876 725529 0.027262016546 9.027262016546 3 7504 7504 22512 168930048
1530	8764178 85 1876 725529 0.027262016546 9.027262016546 3 0 0 0 0
1541	8764263 85 1876 725529 0.027262016546 9.027262016546 3 0 0 0 0
1551	8764348 94 1917 725598 0.028303043828 9.028303043828 3 7504 7504 22512 168930048
1552	8764442 94 1917 725598 0.028303043828 9.028303043828 3 7504 7504 22512 168930048
1554	8764536 85 1917 725598 0.028303043828 9.028303043828 3 0 0 0 0
1565	8764621 85 1917 725598 0.028303043828 9.028303043828 3 0 0 0 0
1575	8764706 94 2208 726007 0.032193433337 9.032193433337 3 7504 7504 22512 168930048
1576	8764800 94 2208 726007 0.032193433337 9.032193433337 3 7504 7504 22512 168930048
1578	8764894 85 2208 726007 0.032193433337 9.032193433337 3 0 0 0 0
1589	8764979 85 2208 726007 0.032193433337 9.032193433337 3 0 0 0 0
1599	8765064 94 2292 726153 0.034967919982 9.034967919982 3 7504 7504 22512 168930048
1600	8765158 94 2292 726153 0.034967919982 9.034967919982 3 7504 7504 22512 168930048
1602	8765252 85 2292 726153 0.034967919982 9.034967919982 3 0 0 0 0
1613	8765337 85 2292 726153 0.034967919982 9.034967919982 3 0 0 0 0
1623	8765422 94 2531 726440 0.037255783586 9.037255783586 3 7504 7504 22512 168930048
1624	8765516 94 2531 726440 0.037255783586 9.037255783586 3 7504 7504 22512 168930048
1626	8765610 85 2531 726440 0.037255783586 9.037255783586 3 0 0 0 0
1637	8765695 85 2531 726440 0.037255783586 9.037255783586 3 0 0 0 0
1647	8765780 94 2823 726898 0.042654495104 9.042654495104 3 7504 7504 22512 168930048
1648	8765874 94 2823 726898 0.042654495104 9.042654495104 3 7504 7504 22512 168930048
1650	8765968 85 2823 726898 0.042654495104 9.042654495104 3 0 0 0 0
1661	8766053 85 2823 726898 0.042654495104 9.042654495104 3 0 0 0 0
1671	8766138 94 2831 726905 0.042742808261 9.042742808261 3 7504 7504 22512 168930048
1672	8766232 94 2831 726905 0.042742808261 9.042742808261 3 7504 7504 22512 168930048
1674	8766326 85 2831 726905 0.042742808261 9.042742808261 3 0 0 0 0
1685	8766411 85 2831 726905 0.042742808261 9.042742808261 3 0 0 0 0
1695	8766496 94 2951 727004 0.043019576671 9.043019576671 3 7504 7504 22512 168930048
1696	8766590 94 2951 727004 0.043019576671 9.043019576671 3 7504 7504 22512 168930048
1698	8766684 85 2951 727004 0.043019576671 9.043019576671 3 0 0 0 0
1709	8766769 85 2951 727004 0.043019576671 9.043019576671 3 0 0 0 0
1719	8766854 94 3041 727151 0.044464713358 9.044464713358 3 7504 7504 22512 168930048
1720	8766948 94 3041 727151 0.044464713358 9.044464713358 3 7504 7504 22512 168930048
1722	8767042 85 3041 727151 0.044464713358 9.044464713358 3 0 0 0 0
1733	8767127 85 3041 727151 0.044464713358 9.044464713358 3 0 0 0 0
1743	8767212 94 4224 728438 0.058969033093 9.058969033093 3 7504 7504 22512 168930048
1744	8767306 94 4224 728438 0.058969033093 9.058969033093 3 7504 7504 22512 168930048
1746	8767400 85 4224 728438 0.058969033093 9.058969033093 3 0 0 0 0
1757	8767485 85 4224 728438 0.058969033093 9.058969033093 3 0 0 0 0
1767	8767570 94 4608 728939 0.063074826114 9.063074826114 3 7504 7504 22512 168930048
1768	8767664 94 4608 728939 0.063074826114 9.063074826114 3 7504 7504 22512 168930048
1770	8767758 85 4608 728939 0.063074826114 9.063074826114 3 0 0 0 0
1781	8767843 85 4608 728939 0.063074826114 9.063074826114 3 0 0 0 0
1791	8767928 94 4839 729322 0.067512416122 9.067512416122 3 7504 7504 22512 168930048
1792	8768022 94 4839 729322 0.067512416122 9.067512416122 3 7504 7504 22512 168930048
1794	8768116 85 4839 729322 0.067512416122 9.067512416122 3 0 0 0 0
1805	8768201 85 4839 729322 0.067512416122 9.067512416122 3 0 0 0 0
1815	8768286 94 4945 729460 0.068596436554 9.068596436554 3 7504 7504 22512 168930048
1816	8768380 94 4945 729460 0.068596436554 9.068596436554 3 7504 7504 22512 168930048
1818	8768474 85 4945 729460 0.068596436554 9.068596436554 3 0 0 0 0
1829	8768559 85 4945 729460 0.068596436554 9.068596436554 3 0 0 0 0
1839	8768644 94 5098 729623 0.070868452201 9.070868452201 3 7504 7504 22512 168930048
1840	8768738 94 5098 729623 0.070868452201 9.070868452201 3 7504 7504 22512 168930048
1842	8768832 85 5098 729623 0.070868452201 9.070868452201 3 0 0 0 0
1853	8768917 85 5098 729623 0.070868452201 9.070868452201 3 0 0 0 0
1863	8769002 94 5151 729710 0.071731106779 9.071731106779 3 7504 7504 22512 168930048
1864	8769096 94 5151 729710 0.071731106779 9.071731106779 3 7504 7504 22512 168930048
1866	8769190 85 5151 729710 0.071731106779 9.071731106779 3 0 0 0 0
1877	8769275 85 5151 729710 0.071731106779 9.071731106779 3 0 0 0 0
1887	8769360 94 5832 730689 0.080385986073 9.080385986073 3 7504 7504 22512 168930048
1888	8769454 94 5832 730689 0.080385986073 9.080385986073 3 7504 7504 22512 168930048
1890	8769548 85 5832 730689 0.080385986073 9.080385986073 3 0 0 0 0
1901	8769633 85 5832 730689 0.080385986073 9.080385986073 3 0 0 0 0
1911	8769718 94 6276 731308 0.086132885579 9.086132885579 3 7504 7504 22512 168930048
1912	8769812 94 6276 731308 0.086132885579 9.086132885579 3 7504 7504 22512 168930048
1914	8769906 85 6276 731308 0.086132885579 9.086132885579 3 0 0 0 0
1925	8769991 85 6276 731308 0.086132885579 9.086132885579 3 0 0 0 0
1935	8770076 94 6433 731486 0.088660440601 9.088660440601 3 7504 7504 22512 168930048
1936	8770170 94 6433 731486 0.088660440601 9.088660440601 3 7504 7504 22512 168930048
1938	8770264 85 6433 731486 0.088660440601 9.088660440601 3 0 0 0 0
1949	8770349 85 6433 731486 0.088660440601 9.088660440601 3 0 0 0 0
1959	8770434 94 6482 731576 0.089070481334 9.089070481334 3 7504 7504 22512 168930048
1960	8770528 94 6482 731576 0.089070481334 9.089070481334 3 7504 7504 22512 168930048
1962	8770622 85 6482 731576 0.089070481334 9.089070481334 3 0 0 0 0
1973	8770707 85 6482 731576 0.089070481334 9.089070481334 3 0 0 0 0
1983	8770792 94 6901 732110 0.094999797184 9.094999797184 3 7504 7504 22512 168930048
1984	8770886 94 6901 732110 0.094999797184 9.094999797184 3 7504 7504 22512 168930048
1986	8770980 85 6901 732110 0.094999797184 9.094999797184 3 0 0 0 0
1997	8771065 85 6901 732110 0.094999797184 9.094999797184 3 0 0 0 0
2007	8771150 94 6955 732198 0.095104090585 9.095104090585 3 7504 7504 22512 168930048
2008	8771244 94 6955 732198 0.095104090585 9.095104090585 3 7504 7504 22512 168930048
2010	8771338 85 6955 732198 0.095104090585 9.095104090585 3 0 0 0 0
2021	8771423 85 6955 732198 0.095104090585 9.095104090585 3 0 0 0 0
2031	8771508 94 7043 732322 0.096481279186 9.096481279186 3 7504 7504 22512 168930048
2032	8771602 94 7043 732322 0.096481279186 9.096481279186 3 7504 7504 22512 168930048
2034	8771696 85 7043 732322 0.096481279186 9.096481279186 3 0 0 0 0
2045	8771781 85 7043 732322 0.096481279186 9.096481279186 3 0 0 0 0
2055	8771866 94 7344 732651 0.099035166858 9.099035166858 3 7504 7504 22512 168930048
2056	8771960 94 7344 732651 0.099035166858 9.099035166858 3 7504 7504 22512 168930048
2058	8772054 85 7344 732651 0.099035166858 9.099035166858 3 0 0 0 0
2069	8772139 85 7344 732651 0.099035166858 9.099035166858 3 0 0 0 0
