file 5501476 1580827167                                         
version 2
run CAIN-55-20200204-11:38:26-9605
attr configname CAIN
attr datetime 20200204-11:38:26
attr dist 200
attr experiment CAIN
attr inifile omnetpp.ini
attr iterationvars "$dist=200, $mob=\"./movements/RWPRPGM-0.5.movements\""
attr iterationvars2 "$dist=200, $mob=\"./movements/RWPRPGM-0.5.movements\", $repetition=20"
attr measurement "$dist=200, $mob=\"./movements/RWPRPGM-0.5.movements\""
attr mob "\"./movements/RWPRPGM-0.5.movements\""
attr network lte.simulations.networks.CAIN
attr processid 9605
attr repetition 20
attr replication #20
attr resultdir results
attr runnumber 55
attr seedset 20
param **.**.amcMode "\"AUTO\""
param **.amcMode "\"D2D\""
param **.cainNetwork true
param **.channelControl.alpha 1.0
param **.channelControl.carrierFrequency 2100e+6Hz
param **.channelControl.pMax 10W
param **.d2dCqi 7
param **.deployer.numRbDl 50
param **.deployer.numRbUl 50
param **.distThresh "${dist=200..260 step 10}"
param **.fbDelay 1
param **.feedbackComputation "xmldoc(\"config_channel.xml\")"
param **.mobility.constraintAreaMaxX 1000m
param **.mobility.constraintAreaMaxY 1000m
param **.mobility.constraintAreaMaxZ 0m
param **.mobility.constraintAreaMinX 0m
param **.mobility.constraintAreaMinY 0m
param **.mobility.constraintAreaMinZ 0m
param **.nic.phy.channelModel "xmldoc(\"config_channel.xml\")"
param **.numBands 50
param **.pwrThresh -10
param **.qtdThresh 3
param **.rbAllocationType "\"localized\""
param **.routingRecorder.enabled false
param **.tcpApp[*].tClose -1s
param **.ueD2DTx[*].mobility.changeAngleBy "normal(0deg, 30deg)"
param **.ueD2DTx[*].mobility.changeInterval "normal(5s, 0.1s)"
param **.ueD2DTx[*].mobility.nodeId -1
param **.ueD2DTx[*].mobility.speed "normal(2mps, 0.01mps)"
param **.ueD2DTx[*].mobility.traceFile "${mob=\"./movements/RWPRPGM-0.0.movements\",\"./movements/RWPRPGM-0.5.movements\"}"
param **.ueD2DTx[*].mobilityType "\"BonnMotionMobility\""
param **.usePreconfiguredTxParams false
param *.eNodeB.d2dCapable false
param *.eNodeB.mobility.initFromDisplayString false
param *.eNodeB.mobility.initialX 300m
param *.eNodeB.mobility.initialY 300m
param *.eNodeB.nic.phy.enableD2DCqiReporting true
param *.eNodeB.txPower 19952.62315mw
param *.numUeCell 0
param *.numUeD2DRx 1
param *.numUeD2DTx 1
param *.ue*.macCellId 1
param *.ue*.masterId 1
param *.ue*.mobility.initFromDisplayString false
param *.ue*[0].macCellId 1
param *.ue*[0].masterId 1
param *.ue*[0].mobility.initFromDisplayString false
param *.ueD2D*.numTcpApps 1
param *.ueD2D*[*].d2dCapable true
param *.ueD2D*[0].d2dCapable false
param *.ueD2D*[0].numTcpApps 1
param *.ueD2DRx[0].mobility.initialX 310m
param *.ueD2DRx[0].mobility.initialY 350m
param *.ueD2DRx[0].tcpApp[*].localPort 1000
param *.ueD2DRx[0].tcpApp[*].typename "\"TCPSinkApp\""
param *.ueD2DTx*.tcpApp[*].connectAddress "\"ueD2DTx[0]\""
param *.ueD2DTx*.tcpApp[*].localAddress "\"ueD2DTx\""
param *.ueD2DTx*.tcpApp[*].localPort 1000
param *.ueD2DTx*.tcpApp[*].sendBytes 1GiB
param *.ueD2DTx*.tcpApp[*].typename "\"TCPSessionApp\""
param *.ueD2DTx*.tcpApp[0].active true
param *.ueD2DTx*.tcpApp[0].connectPort 1000
param *.ueD2DTx*.tcpApp[0].tOpen uniform(0.010s,0.1s)
param *.ueD2DTx*.tcpApp[0].tSend uniform(0.15s,0.5s)
param *.ueD2DTx[0].mobility.initialX 290m
param *.ueD2DTx[0].mobility.initialY 350m
param *.ueD2DTx[0].nic.d2dPeerAddresses "\"ueD2DTx[1]\""
param *.ueD2DTx[0].tcpApp[*].localPort 1000
param *.ueD2DTx[0].tcpApp[*].sendBytes 1GiB
param *.ueD2DTx[0].tcpApp[*].typename "\"TCPSessionApp\""
param *.ueD2DTx[0].tcpApp[0].active true
param *.ueD2DTx[0].tcpApp[0].connectAddress "\"ueD2DRx[0]\""
param *.ueD2DTx[0].tcpApp[0].connectPort 1000
param *.ueD2DTx[0].tcpApp[0].localAddress "\"ueD2DTx[0]\""
param *.ueD2DTx[0].tcpApp[0].tOpen uniform(0.010s,0.1s)
param *.ueD2DTx[0].tcpApp[0].tSend uniform(0.15s,0.5s)
param *.ueD2DTx[1].nic.d2dPeerAddresses "\"ueD2DTx[0]\""

vector 8  CAIN.server.ppp[0].queue  queueLength:vector  ETV
attr interpolationmode  sample-hold
attr title  "queue length, vector"
vector 9  CAIN.server.ppp[0].ppp  txState:vector  ETV
attr interpolationmode  sample-hold
attr title  "tx state, vector"
vector 24  CAIN.router.ppp[0].queue  queueLength:vector  ETV
attr interpolationmode  sample-hold
attr title  "queue length, vector"
vector 25  CAIN.router.ppp[0].ppp  txState:vector  ETV
attr interpolationmode  sample-hold
attr title  "tx state, vector"
vector 35  CAIN.router.ppp[1].queue  queueLength:vector  ETV
attr interpolationmode  sample-hold
attr title  "queue length, vector"
vector 36  CAIN.router.ppp[1].ppp  txState:vector  ETV
attr interpolationmode  sample-hold
attr title  "tx state, vector"
vector 56  CAIN.pgw.ppp[0].queue  queueLength:vector  ETV
attr interpolationmode  sample-hold
attr title  "queue length, vector"
vector 57  CAIN.pgw.ppp[0].ppp  txState:vector  ETV
attr interpolationmode  sample-hold
attr title  "tx state, vector"
vector 67  CAIN.pgw.pppInterface.queue  queueLength:vector  ETV
attr interpolationmode  sample-hold
attr title  "queue length, vector"
vector 68  CAIN.pgw.pppInterface.ppp  txState:vector  ETV
attr interpolationmode  sample-hold
attr title  "tx state, vector"
vector 104  CAIN.eNodeB.pppIf.queue  queueLength:vector  ETV
attr interpolationmode  sample-hold
attr title  "queue length, vector"
vector 105  CAIN.eNodeB.pppIf.ppp  txState:vector  ETV
attr interpolationmode  sample-hold
attr title  "tx state, vector"
vector 138  CAIN.ueD2DTx[0].nic.phy  servingCell:vector  ETV
attr source  servingCell
attr title  "ID of the serving eNodeB for the UE, vector"
attr unit  ""
vector 165  CAIN.ueD2DTx[1].nic.phy  servingCell:vector  ETV
attr source  servingCell
attr title  "ID of the serving eNodeB for the UE, vector"
attr unit  ""
vector 192  CAIN.ueD2DTx[2].nic.phy  servingCell:vector  ETV
attr source  servingCell
attr title  "ID of the serving eNodeB for the UE, vector"
attr unit  ""
vector 219  CAIN.ueD2DTx[3].nic.phy  servingCell:vector  ETV
attr source  servingCell
attr title  "ID of the serving eNodeB for the UE, vector"
attr unit  ""
vector 246  CAIN.ueD2DTx[4].nic.phy  servingCell:vector  ETV
attr source  servingCell
attr title  "ID of the serving eNodeB for the UE, vector"
attr unit  ""
vector 85  CAIN.eNodeB.nic.mac  receivedPacketFromLowerLayer:vector(packetBytes)  ETV
attr interpolationmode  none
attr source  receivedPacketFromLowerLayer
vector 264  CAIN.ueD2DTx[0].tcp  tcpRcvQueueBytes  ETV
vector 251  CAIN.ueD2DTx[0].tcp  "advertised window"  ETV
vector 250  CAIN.ueD2DTx[0].tcp  "receive window"  ETV
vector 253  CAIN.ueD2DTx[0].tcp  "sent ack"  ETV
vector 117  CAIN.ueD2DTx[0].nic.pdcpRrc  receivedPacketFromUpperLayer:vector(packetBytes)  ETV
attr interpolationmode  none
attr source  receivedPacketFromUpperLayer
vector 120  CAIN.ueD2DTx[0].nic.pdcpRrc  sentPacketToLowerLayer:vector(packetBytes)  ETV
attr interpolationmode  none
attr source  sentPacketToLowerLayer
vector 121  CAIN.ueD2DTx[0].nic.mac  receivedPacketFromUpperLayer:vector(packetBytes)  ETV
attr interpolationmode  none
attr source  receivedPacketFromUpperLayer
vector 124  CAIN.ueD2DTx[0].nic.mac  sentPacketToLowerLayer:vector(packetBytes)  ETV
attr interpolationmode  none
attr source  sentPacketToLowerLayer
vector 96  CAIN.eNodeB.nic.mac  racpkt:vector  ETV
attr interpolationmode  none
attr title  "eNB received racpkt message, vector"
vector 97  CAIN.eNodeB.nic.mac  racDistanceSignal:vector  ETV
attr interpolationmode  none
attr title  "Rac distance to enb, vector"
vector 87  CAIN.eNodeB.nic.mac  sentPacketToLowerLayer:vector(packetBytes)  ETV
attr interpolationmode  none
attr source  sentPacketToLowerLayer
vector 149  CAIN.ueD2DTx[1].nic.mac  receivedPacketFromLowerLayer:vector(packetBytes)  ETV
attr interpolationmode  none
attr source  receivedPacketFromLowerLayer
vector 160  CAIN.ueD2DTx[1].nic.mac  racpkt:vector  ETV
attr interpolationmode  none
attr title  "eNB received racpkt message, vector"
vector 161  CAIN.ueD2DTx[1].nic.mac  racDistanceSignal:vector  ETV
attr interpolationmode  none
attr title  "Rac distance to enb, vector"
vector 151  CAIN.ueD2DTx[1].nic.mac  sentPacketToLowerLayer:vector(packetBytes)  ETV
attr interpolationmode  none
attr source  sentPacketToLowerLayer
vector 176  CAIN.ueD2DTx[2].nic.mac  receivedPacketFromLowerLayer:vector(packetBytes)  ETV
attr interpolationmode  none
attr source  receivedPacketFromLowerLayer
vector 187  CAIN.ueD2DTx[2].nic.mac  racpkt:vector  ETV
attr interpolationmode  none
attr title  "eNB received racpkt message, vector"
vector 188  CAIN.ueD2DTx[2].nic.mac  racDistanceSignal:vector  ETV
attr interpolationmode  none
attr title  "Rac distance to enb, vector"
vector 178  CAIN.ueD2DTx[2].nic.mac  sentPacketToLowerLayer:vector(packetBytes)  ETV
attr interpolationmode  none
attr source  sentPacketToLowerLayer
vector 122  CAIN.ueD2DTx[0].nic.mac  receivedPacketFromLowerLayer:vector(packetBytes)  ETV
attr interpolationmode  none
attr source  receivedPacketFromLowerLayer
vector 203  CAIN.ueD2DTx[3].nic.mac  receivedPacketFromLowerLayer:vector(packetBytes)  ETV
attr interpolationmode  none
attr source  receivedPacketFromLowerLayer
vector 214  CAIN.ueD2DTx[3].nic.mac  racpkt:vector  ETV
attr interpolationmode  none
attr title  "eNB received racpkt message, vector"
vector 215  CAIN.ueD2DTx[3].nic.mac  racDistanceSignal:vector  ETV
attr interpolationmode  none
attr title  "Rac distance to enb, vector"
vector 205  CAIN.ueD2DTx[3].nic.mac  sentPacketToLowerLayer:vector(packetBytes)  ETV
attr interpolationmode  none
attr source  sentPacketToLowerLayer
vector 133  CAIN.ueD2DTx[0].nic.mac  racpkt:vector  ETV
attr interpolationmode  none
attr title  "eNB received racpkt message, vector"
vector 134  CAIN.ueD2DTx[0].nic.mac  racDistanceSignal:vector  ETV
attr interpolationmode  none
attr title  "Rac distance to enb, vector"
vector 230  CAIN.ueD2DTx[4].nic.mac  receivedPacketFromLowerLayer:vector(packetBytes)  ETV
attr interpolationmode  none
attr source  receivedPacketFromLowerLayer
vector 241  CAIN.ueD2DTx[4].nic.mac  racpkt:vector  ETV
attr interpolationmode  none
attr title  "eNB received racpkt message, vector"
vector 242  CAIN.ueD2DTx[4].nic.mac  racDistanceSignal:vector  ETV
attr interpolationmode  none
attr title  "Rac distance to enb, vector"
vector 232  CAIN.ueD2DTx[4].nic.mac  sentPacketToLowerLayer:vector(packetBytes)  ETV
attr interpolationmode  none
attr source  sentPacketToLowerLayer
vector 93  CAIN.eNodeB.nic.mac  ServedDevs:vector  ETV
attr interpolationmode  none
attr title  "# of devices served on cain forwarding, vector"
vector 91  CAIN.eNodeB.nic.mac  DistanceSignal:vector  ETV
attr interpolationmode  none
attr title  "Distance to enb, vector"
vector 89  CAIN.eNodeB.nic.mac  CainMessage:vector  ETV
attr interpolationmode  none
attr title  "eNB received CAIN message, vector"
vector 92  CAIN.eNodeB.nic.mac  HopDistanceSignal:vector  ETV
attr interpolationmode  none
attr title  "Distance to enb with hop forwarding, vector"
vector 90  CAIN.eNodeB.nic.mac  CainHopMessage:vector  ETV
attr interpolationmode  none
attr title  "eNB received CAIN hop message, vector"
vector 288  CAIN.ueD2DTx[1].tcp  tcpRcvQueueBytes  ETV
vector 275  CAIN.ueD2DTx[1].tcp  "advertised window"  ETV
vector 274  CAIN.ueD2DTx[1].tcp  "receive window"  ETV
vector 277  CAIN.ueD2DTx[1].tcp  "sent ack"  ETV
vector 144  CAIN.ueD2DTx[1].nic.pdcpRrc  receivedPacketFromUpperLayer:vector(packetBytes)  ETV
attr interpolationmode  none
attr source  receivedPacketFromUpperLayer
vector 147  CAIN.ueD2DTx[1].nic.pdcpRrc  sentPacketToLowerLayer:vector(packetBytes)  ETV
attr interpolationmode  none
attr source  sentPacketToLowerLayer
vector 148  CAIN.ueD2DTx[1].nic.mac  receivedPacketFromUpperLayer:vector(packetBytes)  ETV
attr interpolationmode  none
attr source  receivedPacketFromUpperLayer
vector 150  CAIN.ueD2DTx[1].nic.mac  sentPacketToUpperLayer:vector(packetBytes)  ETV
attr interpolationmode  none
attr source  sentPacketToUpperLayer
vector 99  CAIN.eNodeB.nic.phy  averageCqiUlvect:vector  ETV
attr source  averageCqiUlvect
attr title  "Average Cqi reported in UL, vector"
attr unit  cqi
vector 86  CAIN.eNodeB.nic.mac  sentPacketToUpperLayer:vector(packetBytes)  ETV
attr interpolationmode  none
attr source  sentPacketToUpperLayer
vector 81  CAIN.eNodeB.nic.pdcpRrc  receivedPacketFromLowerLayer:vector(packetBytes)  ETV
attr interpolationmode  none
attr source  receivedPacketFromLowerLayer
vector 82  CAIN.eNodeB.nic.pdcpRrc  sentPacketToUpperLayer:vector(packetBytes)  ETV
attr interpolationmode  none
attr source  sentPacketToUpperLayer
vector 80  CAIN.eNodeB.nic.pdcpRrc  receivedPacketFromUpperLayer:vector(packetBytes)  ETV
attr interpolationmode  none
attr source  receivedPacketFromUpperLayer
vector 83  CAIN.eNodeB.nic.pdcpRrc  sentPacketToLowerLayer:vector(packetBytes)  ETV
attr interpolationmode  none
attr source  sentPacketToLowerLayer
vector 84  CAIN.eNodeB.nic.mac  receivedPacketFromUpperLayer:vector(packetBytes)  ETV
attr interpolationmode  none
attr source  receivedPacketFromUpperLayer
vector 312  CAIN.ueD2DTx[2].tcp  tcpRcvQueueBytes  ETV
vector 299  CAIN.ueD2DTx[2].tcp  "advertised window"  ETV
vector 298  CAIN.ueD2DTx[2].tcp  "receive window"  ETV
vector 301  CAIN.ueD2DTx[2].tcp  "sent ack"  ETV
vector 171  CAIN.ueD2DTx[2].nic.pdcpRrc  receivedPacketFromUpperLayer:vector(packetBytes)  ETV
attr interpolationmode  none
attr source  receivedPacketFromUpperLayer
vector 174  CAIN.ueD2DTx[2].nic.pdcpRrc  sentPacketToLowerLayer:vector(packetBytes)  ETV
attr interpolationmode  none
attr source  sentPacketToLowerLayer
vector 175  CAIN.ueD2DTx[2].nic.mac  receivedPacketFromUpperLayer:vector(packetBytes)  ETV
attr interpolationmode  none
attr source  receivedPacketFromUpperLayer
vector 88  CAIN.eNodeB.nic.mac  measuredItbs:vector  ETV
attr source  measuredItbs
attr title  "TBS index, vector"
attr unit  ""
vector 216  CAIN.ueD2DTx[3].nic.phy  averageCqiDlvect:vector  ETV
attr source  averageCqiDlvect
attr title  "Average Cqi reported in DL, vector"
attr unit  cqi
vector 177  CAIN.ueD2DTx[2].nic.mac  sentPacketToUpperLayer:vector(packetBytes)  ETV
attr interpolationmode  none
attr source  sentPacketToUpperLayer
vector 204  CAIN.ueD2DTx[3].nic.mac  sentPacketToUpperLayer:vector(packetBytes)  ETV
attr interpolationmode  none
attr source  sentPacketToUpperLayer
vector 199  CAIN.ueD2DTx[3].nic.pdcpRrc  receivedPacketFromLowerLayer:vector(packetBytes)  ETV
attr interpolationmode  none
attr source  receivedPacketFromLowerLayer
vector 200  CAIN.ueD2DTx[3].nic.pdcpRrc  sentPacketToUpperLayer:vector(packetBytes)  ETV
attr interpolationmode  none
attr source  sentPacketToUpperLayer
vector 336  CAIN.ueD2DTx[4].tcp  tcpRcvQueueBytes  ETV
vector 323  CAIN.ueD2DTx[4].tcp  "advertised window"  ETV
vector 322  CAIN.ueD2DTx[4].tcp  "receive window"  ETV
vector 325  CAIN.ueD2DTx[4].tcp  "sent ack"  ETV
vector 225  CAIN.ueD2DTx[4].nic.pdcpRrc  receivedPacketFromUpperLayer:vector(packetBytes)  ETV
attr interpolationmode  none
attr source  receivedPacketFromUpperLayer
vector 228  CAIN.ueD2DTx[4].nic.pdcpRrc  sentPacketToLowerLayer:vector(packetBytes)  ETV
attr interpolationmode  none
attr source  sentPacketToLowerLayer
vector 229  CAIN.ueD2DTx[4].nic.mac  receivedPacketFromUpperLayer:vector(packetBytes)  ETV
attr interpolationmode  none
attr source  receivedPacketFromUpperLayer
vector 231  CAIN.ueD2DTx[4].nic.mac  sentPacketToUpperLayer:vector(packetBytes)  ETV
attr interpolationmode  none
attr source  sentPacketToUpperLayer
vector 360  CAIN.ueD2DTx[3].tcp  tcpRcvQueueBytes  ETV
vector 347  CAIN.ueD2DTx[3].tcp  "advertised window"  ETV
vector 346  CAIN.ueD2DTx[3].tcp  "receive window"  ETV
vector 349  CAIN.ueD2DTx[3].tcp  "sent ack"  ETV
vector 198  CAIN.ueD2DTx[3].nic.pdcpRrc  receivedPacketFromUpperLayer:vector(packetBytes)  ETV
attr interpolationmode  none
attr source  receivedPacketFromUpperLayer
vector 201  CAIN.ueD2DTx[3].nic.pdcpRrc  sentPacketToLowerLayer:vector(packetBytes)  ETV
attr interpolationmode  none
attr source  sentPacketToLowerLayer
vector 202  CAIN.ueD2DTx[3].nic.mac  receivedPacketFromUpperLayer:vector(packetBytes)  ETV
attr interpolationmode  none
attr source  receivedPacketFromUpperLayer
vector 135  CAIN.ueD2DTx[0].nic.phy  averageCqiDlvect:vector  ETV
attr source  averageCqiDlvect
attr title  "Average Cqi reported in DL, vector"
attr unit  cqi
vector 123  CAIN.ueD2DTx[0].nic.mac  sentPacketToUpperLayer:vector(packetBytes)  ETV
attr interpolationmode  none
attr source  sentPacketToUpperLayer
vector 118  CAIN.ueD2DTx[0].nic.pdcpRrc  receivedPacketFromLowerLayer:vector(packetBytes)  ETV
attr interpolationmode  none
attr source  receivedPacketFromLowerLayer
vector 119  CAIN.ueD2DTx[0].nic.pdcpRrc  sentPacketToUpperLayer:vector(packetBytes)  ETV
attr interpolationmode  none
attr source  sentPacketToUpperLayer
vector 189  CAIN.ueD2DTx[2].nic.phy  averageCqiDlvect:vector  ETV
attr source  averageCqiDlvect
attr title  "Average Cqi reported in DL, vector"
attr unit  cqi
vector 172  CAIN.ueD2DTx[2].nic.pdcpRrc  receivedPacketFromLowerLayer:vector(packetBytes)  ETV
attr interpolationmode  none
attr source  receivedPacketFromLowerLayer
vector 173  CAIN.ueD2DTx[2].nic.pdcpRrc  sentPacketToUpperLayer:vector(packetBytes)  ETV
attr interpolationmode  none
attr source  sentPacketToUpperLayer
8	17259 8 0 0 0 0 1 0 0 0 0
9	17267 8 0 0 0 0 1 0 0 0 0
24	17275 9 0 0 0 0 1 0 0 0 0
25	17284 9 0 0 0 0 1 0 0 0 0
35	17293 9 0 0 0 0 1 0 0 0 0
36	17302 9 0 0 0 0 1 0 0 0 0
56	17311 9 0 0 0 0 1 0 0 0 0
57	17320 9 0 0 0 0 1 0 0 0 0
67	17329 9 0 0 0 0 1 0 0 0 0
68	17338 9 0 0 0 0 1 0 0 0 0
80	17347 215 790 274590 0.033 9.217 12 44 44 528 23232
81	17562 215 785 274585 0.033 9.217 12 45 45 540 24300
82	17777 215 785 274585 0.033 9.217 12 44 44 528 23232
83	17992 215 790 274590 0.033 9.217 12 45 45 540 24300
84	18207 430 793 274621 0.033 9.218 24 45 47 1104 50808
85	18637 398592 60 297402 0.002 9.998 22719 0 0 0 0
86	417229 472 780 274616 0.033 9.218 27 0 47 570 23664
87	417701 217286 224 297363 0.017 9.998 12337 0 0 0 0
88	634987 215 830 274616 0.034 9.218 12 26 26 312 8112
89	635202 255001 342 297402 0.021 9.998 12304 1 12304 75700360 620970053080
90	890203 125802 398 297402 0.023 9.998 6152 1 6152 18926628 77630719180
91	1016005 120738 342 297334 0.021 9.996 6152 85 424 1491160 463016508
92	1136743 120757 398 297402 0.023 9.998 6152 167 224 1254675 259926233
93	1257500 108438 342 297334 0.021 9.996 6152 1 3 18433 55255
96	1365938 168117 224 297402 0.017 9.998 8205 1 8205 33665115 184159400755
97	1534055 154861 224 297402 0.017 9.998 8205 44 223 703809 80875945
99	1688916 261 669 274472 0.03 9.214 15 8 15 186 2456
104	1689177 10 0 0 0 0 1 0 0 0 0
105	1689187 10 0 0 0 0 1 0 0 0 0
117	1689197 83 204 265470 0.015788010289 9.015788010289 3 44 44 132 5808
118	1689280 57 2569 267513 0.077 9.072 3 45 45 135 6075
119	1689337 57 2569 267513 0.077 9.072 3 44 44 132 5808
120	1689394 83 204 265470 0.015788010289 9.015788010289 3 45 45 135 6075
121	1689477 83 207 265473 0.015788010289 9.015788010289 3 45 45 135 6075
122	1689560 188877 272 297444 0.019 10 10199 0 0 0 0
123	1878437 57 2565 267509 0.077 9.072 3 47 47 141 6627
124	1878494 188874 209 297444 0.016 10 10199 0 0 0 0
133	2067368 175098 283 297444 0.019 10 8199 1 8199 33615900 183755714700
134	2242466 163904 283 297444 0.019 10 8199 85 224 1116676 178160220
135	2406370 57 2441 267410 0.074 9.069 3 15 15 45 675
138	2406427 10 0 0 0 0 1 1 1 1 1
144	2406437 83 439 265734 0.024316558922 9.024316558922 3 44 44 132 5808
147	2406520 83 439 265734 0.024316558922 9.024316558922 3 45 45 135 6075
148	2406603 139 442 265906 0.024316558922 9.029 6 45 47 276 12702
149	2406742 228414 244 297450 0.018 10 12326 0 0 0 0
150	2635156 53 607 265902 0.029 9.029 3 0 0 0 0
151	2635209 228487 244 297450 0.018 10 12330 0 0 0 0
160	2863696 266482 244 297450 0.018 10 12320 1 12320 75897360 623395615920
161	3130178 240618 244 297450 0.018 10 12320 0 154 932969 141342105
165	3370796 10 0 0 0 0 1 1 1 1 1
171	3370806 83 826 266120 0.033656805798 9.033656805798 3 44 44 132 5808
172	3370889 57 4442 274753 0.117 9.222 3 45 45 135 6075
173	3370946 57 4442 274753 0.117 9.222 3 44 44 132 5808
174	3371003 83 826 266120 0.033656805798 9.033656805798 3 45 45 135 6075
175	3371086 140 829 266295 0.033656805798 9.038 6 45 47 276 12702
176	3371226 189085 253 297459 0.018 10 10273 0 0 0 0
177	3560311 110 997 274749 0.038 9.222 6 0 47 141 6627
178	3560421 227253 253 297459 0.018 10 12322 0 0 0 0
187	3787674 218874 253 297459 0.018 10 10264 1 10264 52679980 360489103140
188	4006548 201244 253 297459 0.018 10 10264 0 223 999859 162674795
189	4207792 57 4351 274672 0.114 9.219 3 15 15 45 675
192	4207849 10 0 0 0 0 1 1 1 1 1
198	4207859 84 2159 267396 0.068852874448 9.068852874448 3 44 44 132 5808
199	4207943 114 1006 266621 0.038 9.047 6 45 45 270 12150
200	4208057 114 1006 266621 0.038 9.047 6 44 44 264 11616
201	4208171 84 2159 267396 0.068852874448 9.068852874448 3 45 45 135 6075
202	4208255 919 2162 274418 0.068852874448 9.213 48 0 47 278 11754
203	4209174 230052 274 297428 0.019 9.999 12351 0 0 0 0
204	4439226 945 1002 274414 0.038 9.213 51 0 47 282 13254
205	4440171 230053 274 297428 0.019 9.999 12351 0 0 0 0
214	4670224 267119 274 297428 0.019 9.999 12296 1 12296 75601956 619759634636
215	4937343 245433 274 297428 0.019 9.999 12296 44 224 1251217 186165699
216	5182776 113 880 266561 0.035 9.044 6 15 15 90 1350
219	5182889 10 0 0 0 0 1 1 1 1 1
225	5182899 81 1678 266971 0.05874538359 9.05874538359 3 44 44 132 5808
228	5182980 81 1678 266971 0.05874538359 9.05874538359 3 45 45 135 6075
229	5183061 175 1681 267149 0.05874538359 9.063 8 19 47 280 10806
230	5183236 74353 313 297453 0.02 10 4112 0 0 0 0
231	5257589 89 1852 267145 0.063 9.063 5 0 0 0 0
232	5257678 74353 313 297453 0.02 10 4112 0 0 0 0
241	5332031 85374 313 297453 0.02 10 4102 1 4102 8415253 23015716955
242	5417405 82375 313 297453 0.02 10 4102 85 169 654577 104748051
246	5499780 10 0 0 0 0 1 1 1 1 1
250	5499790 89 201 265467 0.015788010289 9.015788010289 3 7504 7504 22512 168930048
251	5499879 89 201 265467 0.015788010289 9.015788010289 3 7504 7504 22512 168930048
253	5499968 80 201 265467 0.015788010289 9.015788010289 3 0 0 0 0
264	5500048 80 201 265467 0.015788010289 9.015788010289 3 0 0 0 0
274	5500128 89 436 265731 0.024316558922 9.024316558922 3 7504 7504 22512 168930048
275	5500217 89 436 265731 0.024316558922 9.024316558922 3 7504 7504 22512 168930048
277	5500306 80 436 265731 0.024316558922 9.024316558922 3 0 0 0 0
288	5500386 80 436 265731 0.024316558922 9.024316558922 3 0 0 0 0
298	5500466 89 823 266117 0.033656805798 9.033656805798 3 7504 7504 22512 168930048
299	5500555 89 823 266117 0.033656805798 9.033656805798 3 7504 7504 22512 168930048
301	5500644 80 823 266117 0.033656805798 9.033656805798 3 0 0 0 0
312	5500724 80 823 266117 0.033656805798 9.033656805798 3 0 0 0 0
322	5500804 87 1675 266968 0.05874538359 9.05874538359 3 7504 7504 22512 168930048
323	5500891 87 1675 266968 0.05874538359 9.05874538359 3 7504 7504 22512 168930048
325	5500978 78 1675 266968 0.05874538359 9.05874538359 3 0 0 0 0
336	5501056 78 1675 266968 0.05874538359 9.05874538359 3 0 0 0 0
346	5501134 90 2156 267393 0.068852874448 9.068852874448 3 7504 7504 22512 168930048
347	5501224 90 2156 267393 0.068852874448 9.068852874448 3 7504 7504 22512 168930048
349	5501314 81 2156 267393 0.068852874448 9.068852874448 3 0 0 0 0
360	5501395 81 2156 267393 0.068852874448 9.068852874448 3 0 0 0 0
