file 6691771 1589565245                                         
version 2
run CAIN-59-20200515-14:48:58-17252
attr configname CAIN
attr datetime 20200515-14:48:58
attr dist 200
attr experiment CAIN
attr inifile omnetpp.ini
attr iterationvars "$numUe=25, $pwr=-50, $dist=200, $mob=\"./movements/RWPRPGM-0.5.movements\""
attr iterationvars2 "$numUe=25, $pwr=-50, $dist=200, $mob=\"./movements/RWPRPGM-0.5.movements\", $repetition=4"
attr measurement "$numUe=25, $pwr=-50, $dist=200, $mob=\"./movements/RWPRPGM-0.5.movements\""
attr mob "\"./movements/RWPRPGM-0.5.movements\""
attr network lte.simulations.networks.CAIN
attr numUe 25
attr processid 17252
attr pwr -50
attr repetition 4
attr replication #4
attr resultdir results
attr runnumber 59
attr seedset 4
param **.**.amcMode "\"AUTO\""
param **.amcMode "\"D2D\""
param **.cainNetwork true
param **.channelControl.alpha 1.0
param **.channelControl.carrierFrequency 2100e+6Hz
param **.channelControl.pMax 10W
param **.d2dCqi 7
param **.deployer.numRbDl 50
param **.deployer.numRbUl 50
param **.distThresh ${dist=200}
param **.fbDelay 1
param **.feedbackComputation "xmldoc(\"config_channel.xml\")"
param **.mobility.constraintAreaMaxX 1000m
param **.mobility.constraintAreaMaxY 1000m
param **.mobility.constraintAreaMaxZ 0m
param **.mobility.constraintAreaMinX 0m
param **.mobility.constraintAreaMinY 0m
param **.mobility.constraintAreaMinZ 0m
param **.nic.phy.channelModel "xmldoc(\"config_channel.xml\")"
param **.numBands 50
param **.pwrThresh "${pwr= -50}"
param **.qtdThresh 3
param **.rbAllocationType "\"localized\""
param **.routingRecorder.enabled false
param **.tcpApp[*].tClose -1s
param **.ueD2DTx[*].mobility.changeAngleBy "normal(0deg, 30deg)"
param **.ueD2DTx[*].mobility.changeInterval "normal(5s, 0.1s)"
param **.ueD2DTx[*].mobility.nodeId -1
param **.ueD2DTx[*].mobility.speed "normal(2mps, 0.01mps)"
param **.ueD2DTx[*].mobility.traceFile "${mob=\"./movements/RWP-0.0.movements\",\"./movements/RWP-0.5.movements\",\"./movements/RPGM-0.0.movements\",\"./movements/RPGM-0.5.movements\",\"./movements/RWPRPGM-0.0.movements\",\"./movements/RWPRPGM-0.5.movements\"}"
param **.ueD2DTx[*].mobilityType "\"BonnMotionMobility\""
param **.usePreconfiguredTxParams false
param *.eNodeB*.numX2Apps 1
param *.eNodeB*.x2App[*].server.localPort "5000 + ancestorIndex(1)"
param *.eNodeB.d2dCapable false
param *.eNodeB.mobility.initFromDisplayString false
param *.eNodeB.mobility.initialX 300m
param *.eNodeB.mobility.initialY 300m
param *.eNodeB.nic.phy.enableD2DCqiReporting true
param *.eNodeB.txPower 19952.62315mw
param *.eNodeB.x2App[0].client.connectAddress "\"eNodeB1%x2ppp0\""
param *.eNodeB1.d2dCapable true
param *.eNodeB1.mobility.initFromDisplayString false
param *.eNodeB1.mobility.initialX 700m
param *.eNodeB1.mobility.initialY 300m
param *.eNodeB1.nic.phy.enableD2DCqiReporting true
param *.eNodeB1.txPower 19952.62315mw
param *.eNodeB1.x2App[0].client.connectAddress "\"eNodeB%x2ppp0\""
param *.extCell[*].bandAllocationType "\"FULL_ALLOC\""
param *.extCell[*].bandUtilization 0.5
param *.extCell[*].txDirection "\"ANISOTROPIC\""
param *.extCell[*].txPower 20
param *.extCell[0].position_x 100m
param *.extCell[0].position_y 600m
param *.extCell[0].txAngle 315
param *.extCell[1].position_x 600m
param *.extCell[1].position_y 600m
param *.extCell[1].txAngle 225
param *.numExtCells 2
param *.numUeCell 0
param *.numUeD2DRx 1
param *.numUeD2DTx 1
param *.ue*.macCellId 1
param *.ue*.masterId 1
param *.ue*.mobility.initFromDisplayString false
param *.ue*[0].macCellId 1
param *.ue*[0].masterId 1
param *.ue*[0].mobility.initFromDisplayString false
param *.ueD2D*.numTcpApps 1
param *.ueD2D*[*].d2dCapable true
param *.ueD2D*[0].d2dCapable false
param *.ueD2D*[0].numTcpApps 1
param *.ueD2DRx[0].mobility.initialX 310m
param *.ueD2DRx[0].mobility.initialY 350m
param *.ueD2DRx[0].tcpApp[*].localPort 1000
param *.ueD2DRx[0].tcpApp[*].typename "\"TCPSinkApp\""
param *.ueD2DTx*.nic.d2dPeerAddresses "\"ueD2DTx[1]\""
param *.ueD2DTx*.tcpApp[*].connectAddress "\"ueD2DTx[0]\""
param *.ueD2DTx*.tcpApp[*].localAddress "\"ueD2DTx\""
param *.ueD2DTx*.tcpApp[*].localPort 1000
param *.ueD2DTx*.tcpApp[*].sendBytes 1GiB
param *.ueD2DTx*.tcpApp[*].typename "\"TCPSessionApp\""
param *.ueD2DTx*.tcpApp[0].active true
param *.ueD2DTx*.tcpApp[0].connectPort 1000
param *.ueD2DTx*.tcpApp[0].tOpen uniform(0.010s,0.1s)
param *.ueD2DTx*.tcpApp[0].tSend uniform(0.15s,0.5s)
param *.ueD2DTx[0].mobility.initialX 290m
param *.ueD2DTx[0].mobility.initialY 350m
param *.ueD2DTx[0].tcpApp[*].localPort 1000
param *.ueD2DTx[0].tcpApp[*].sendBytes 1GiB
param *.ueD2DTx[0].tcpApp[*].typename "\"TCPSessionApp\""
param *.ueD2DTx[0].tcpApp[0].active true
param *.ueD2DTx[0].tcpApp[0].connectAddress "\"ueD2DRx[0]\""
param *.ueD2DTx[0].tcpApp[0].connectPort 1000
param *.ueD2DTx[0].tcpApp[0].localAddress "\"ueD2DTx[0]\""
param *.ueD2DTx[0].tcpApp[0].tOpen uniform(0.010s,0.1s)
param *.ueD2DTx[0].tcpApp[0].tSend uniform(0.15s,0.5s)

vector 8  CAIN.server.ppp[0].queue  queueLength:vector  ETV
attr interpolationmode  sample-hold
attr title  "queue length, vector"
vector 9  CAIN.server.ppp[0].ppp  txState:vector  ETV
attr interpolationmode  sample-hold
attr title  "tx state, vector"
vector 24  CAIN.router.ppp[0].queue  queueLength:vector  ETV
attr interpolationmode  sample-hold
attr title  "queue length, vector"
vector 25  CAIN.router.ppp[0].ppp  txState:vector  ETV
attr interpolationmode  sample-hold
attr title  "tx state, vector"
vector 35  CAIN.router.ppp[1].queue  queueLength:vector  ETV
attr interpolationmode  sample-hold
attr title  "queue length, vector"
vector 36  CAIN.router.ppp[1].ppp  txState:vector  ETV
attr interpolationmode  sample-hold
attr title  "tx state, vector"
vector 56  CAIN.pgw.ppp[0].queue  queueLength:vector  ETV
attr interpolationmode  sample-hold
attr title  "queue length, vector"
vector 57  CAIN.pgw.ppp[0].ppp  txState:vector  ETV
attr interpolationmode  sample-hold
attr title  "tx state, vector"
vector 67  CAIN.pgw.ppp[1].queue  queueLength:vector  ETV
attr interpolationmode  sample-hold
attr title  "queue length, vector"
vector 68  CAIN.pgw.ppp[1].ppp  txState:vector  ETV
attr interpolationmode  sample-hold
attr title  "tx state, vector"
vector 78  CAIN.pgw.pppInterface.queue  queueLength:vector  ETV
attr interpolationmode  sample-hold
attr title  "queue length, vector"
vector 79  CAIN.pgw.pppInterface.ppp  txState:vector  ETV
attr interpolationmode  sample-hold
attr title  "tx state, vector"
vector 120  CAIN.eNodeB.pppIf.queue  queueLength:vector  ETV
attr interpolationmode  sample-hold
attr title  "queue length, vector"
vector 121  CAIN.eNodeB.pppIf.ppp  txState:vector  ETV
attr interpolationmode  sample-hold
attr title  "tx state, vector"
vector 131  CAIN.eNodeB.x2ppp[0].queue  queueLength:vector  ETV
attr interpolationmode  sample-hold
attr title  "queue length, vector"
vector 132  CAIN.eNodeB.x2ppp[0].ppp  txState:vector  ETV
attr interpolationmode  sample-hold
attr title  "tx state, vector"
vector 178  CAIN.eNodeB1.pppIf.queue  queueLength:vector  ETV
attr interpolationmode  sample-hold
attr title  "queue length, vector"
vector 179  CAIN.eNodeB1.pppIf.ppp  txState:vector  ETV
attr interpolationmode  sample-hold
attr title  "tx state, vector"
vector 189  CAIN.eNodeB1.x2ppp[0].queue  queueLength:vector  ETV
attr interpolationmode  sample-hold
attr title  "queue length, vector"
vector 190  CAIN.eNodeB1.x2ppp[0].ppp  txState:vector  ETV
attr interpolationmode  sample-hold
attr title  "tx state, vector"
vector 231  CAIN.ueD2DTx[0].nic.phy  servingCell:vector  ETV
attr source  servingCell
attr title  "ID of the serving eNodeB for the UE, vector"
attr unit  ""
vector 263  CAIN.ueD2DTx[1].nic.phy  servingCell:vector  ETV
attr source  servingCell
attr title  "ID of the serving eNodeB for the UE, vector"
attr unit  ""
vector 295  CAIN.ueD2DTx[2].nic.phy  servingCell:vector  ETV
attr source  servingCell
attr title  "ID of the serving eNodeB for the UE, vector"
attr unit  ""
vector 327  CAIN.ueD2DTx[3].nic.phy  servingCell:vector  ETV
attr source  servingCell
attr title  "ID of the serving eNodeB for the UE, vector"
attr unit  ""
vector 359  CAIN.ueD2DTx[4].nic.phy  servingCell:vector  ETV
attr source  servingCell
attr title  "ID of the serving eNodeB for the UE, vector"
attr unit  ""
vector 391  CAIN.ueD2DTx[5].nic.phy  servingCell:vector  ETV
attr source  servingCell
attr title  "ID of the serving eNodeB for the UE, vector"
attr unit  ""
vector 423  CAIN.ueD2DTx[6].nic.phy  servingCell:vector  ETV
attr source  servingCell
attr title  "ID of the serving eNodeB for the UE, vector"
attr unit  ""
vector 455  CAIN.ueD2DTx[7].nic.phy  servingCell:vector  ETV
attr source  servingCell
attr title  "ID of the serving eNodeB for the UE, vector"
attr unit  ""
vector 487  CAIN.ueD2DTx[8].nic.phy  servingCell:vector  ETV
attr source  servingCell
attr title  "ID of the serving eNodeB for the UE, vector"
attr unit  ""
vector 519  CAIN.ueD2DTx[9].nic.phy  servingCell:vector  ETV
attr source  servingCell
attr title  "ID of the serving eNodeB for the UE, vector"
attr unit  ""
vector 551  CAIN.ueD2DTx[10].nic.phy  servingCell:vector  ETV
attr source  servingCell
attr title  "ID of the serving eNodeB for the UE, vector"
attr unit  ""
vector 583  CAIN.ueD2DTx[11].nic.phy  servingCell:vector  ETV
attr source  servingCell
attr title  "ID of the serving eNodeB for the UE, vector"
attr unit  ""
vector 615  CAIN.ueD2DTx[12].nic.phy  servingCell:vector  ETV
attr source  servingCell
attr title  "ID of the serving eNodeB for the UE, vector"
attr unit  ""
vector 647  CAIN.ueD2DTx[13].nic.phy  servingCell:vector  ETV
attr source  servingCell
attr title  "ID of the serving eNodeB for the UE, vector"
attr unit  ""
vector 679  CAIN.ueD2DTx[14].nic.phy  servingCell:vector  ETV
attr source  servingCell
attr title  "ID of the serving eNodeB for the UE, vector"
attr unit  ""
vector 711  CAIN.ueD2DTx[15].nic.phy  servingCell:vector  ETV
attr source  servingCell
attr title  "ID of the serving eNodeB for the UE, vector"
attr unit  ""
vector 743  CAIN.ueD2DTx[16].nic.phy  servingCell:vector  ETV
attr source  servingCell
attr title  "ID of the serving eNodeB for the UE, vector"
attr unit  ""
vector 775  CAIN.ueD2DTx[17].nic.phy  servingCell:vector  ETV
attr source  servingCell
attr title  "ID of the serving eNodeB for the UE, vector"
attr unit  ""
vector 807  CAIN.ueD2DTx[18].nic.phy  servingCell:vector  ETV
attr source  servingCell
attr title  "ID of the serving eNodeB for the UE, vector"
attr unit  ""
vector 839  CAIN.ueD2DTx[19].nic.phy  servingCell:vector  ETV
attr source  servingCell
attr title  "ID of the serving eNodeB for the UE, vector"
attr unit  ""
vector 871  CAIN.ueD2DTx[20].nic.phy  servingCell:vector  ETV
attr source  servingCell
attr title  "ID of the serving eNodeB for the UE, vector"
attr unit  ""
vector 903  CAIN.ueD2DTx[21].nic.phy  servingCell:vector  ETV
attr source  servingCell
attr title  "ID of the serving eNodeB for the UE, vector"
attr unit  ""
vector 935  CAIN.ueD2DTx[22].nic.phy  servingCell:vector  ETV
attr source  servingCell
attr title  "ID of the serving eNodeB for the UE, vector"
attr unit  ""
vector 967  CAIN.ueD2DTx[23].nic.phy  servingCell:vector  ETV
attr source  servingCell
attr title  "ID of the serving eNodeB for the UE, vector"
attr unit  ""
vector 999  CAIN.ueD2DTx[24].nic.phy  servingCell:vector  ETV
attr source  servingCell
attr title  "ID of the serving eNodeB for the UE, vector"
attr unit  ""
vector 1023  CAIN.eNodeB.sctp  "Throughput of Association 3"  ETV
vector 1045  CAIN.eNodeB1.sctp  "Throughput of Association 4"  ETV
vector 1067  CAIN.eNodeB.sctp  "Throughput of Association 1"  ETV
vector 1087  CAIN.eNodeB.sctp  "Fast Recovery State 1:10.0.5.2"  ETV
vector 1116  CAIN.eNodeB1.sctp  "Throughput of Association 2"  ETV
vector 1136  CAIN.eNodeB1.sctp  "Fast Recovery State 2:10.0.5.1"  ETV
vector 128  CAIN.eNodeB.x2ppp[0].queue  rcvdPk:vector(packetBytes)  ETV
attr interpolationmode  none
attr title  "received packets, vector(packetBytes)"
vector 130  CAIN.eNodeB.x2ppp[0].queue  queueingTime:vector  ETV
attr interpolationmode  none
attr title  "queueing time, vector"
vector 186  CAIN.eNodeB1.x2ppp[0].queue  rcvdPk:vector(packetBytes)  ETV
attr interpolationmode  none
attr title  "received packets, vector(packetBytes)"
vector 188  CAIN.eNodeB1.x2ppp[0].queue  queueingTime:vector  ETV
attr interpolationmode  none
attr title  "queueing time, vector"
vector 137  CAIN.eNodeB.x2ppp[0].ppp  rcvdPkFromHL:vector(packetBytes)  ETV
attr interpolationmode  none
attr source  packetReceivedFromUpper
attr title  "packets received from higher layer, vector(packetBytes)"
vector 133  CAIN.eNodeB.x2ppp[0].ppp  txPk:vector(packetBytes)  ETV
attr interpolationmode  none
attr source  packetSentToLower
attr title  "packets transmitted, vector(packetBytes)"
vector 195  CAIN.eNodeB1.x2ppp[0].ppp  rcvdPkFromHL:vector(packetBytes)  ETV
attr interpolationmode  none
attr source  packetReceivedFromUpper
attr title  "packets received from higher layer, vector(packetBytes)"
vector 191  CAIN.eNodeB1.x2ppp[0].ppp  txPk:vector(packetBytes)  ETV
attr interpolationmode  none
attr source  packetSentToLower
attr title  "packets transmitted, vector(packetBytes)"
vector 192  CAIN.eNodeB1.x2ppp[0].ppp  rxPkOk:vector(packetBytes)  ETV
attr interpolationmode  none
attr source  rxPkOk
attr title  "packets received OK, vector(packetBytes)"
vector 196  CAIN.eNodeB1.x2ppp[0].ppp  passedUpPk:vector(packetBytes)  ETV
attr interpolationmode  none
attr source  packetSentToUpper
attr title  "packets passed to higher layer, vector(packetBytes)"
vector 134  CAIN.eNodeB.x2ppp[0].ppp  rxPkOk:vector(packetBytes)  ETV
attr interpolationmode  none
attr source  rxPkOk
attr title  "packets received OK, vector(packetBytes)"
vector 138  CAIN.eNodeB.x2ppp[0].ppp  passedUpPk:vector(packetBytes)  ETV
attr interpolationmode  none
attr source  packetSentToUpper
attr title  "packets passed to higher layer, vector(packetBytes)"
vector 1165  CAIN.eNodeB1.sctp  "Throughput of Association 4"  ETV
vector 1042  CAIN.eNodeB1.sctp  "Peer Rwnd 4"  ETV
vector 1185  CAIN.eNodeB1.sctp  "Fast Recovery State 5:10.0.4.1"  ETV
vector 1212  CAIN.eNodeB1.sctp  "Fast Recovery State 5:10.0.2.2"  ETV
vector 1239  CAIN.eNodeB1.sctp  "Fast Recovery State 5:10.0.5.1"  ETV
vector 1268  CAIN.eNodeB.sctp  "Throughput of Association 3"  ETV
vector 1020  CAIN.eNodeB.sctp  "Peer Rwnd 3"  ETV
vector 1288  CAIN.eNodeB.sctp  "Fast Recovery State 6:10.0.4.2"  ETV
vector 1315  CAIN.eNodeB.sctp  "Fast Recovery State 6:10.0.3.2"  ETV
vector 1342  CAIN.eNodeB.sctp  "Fast Recovery State 6:10.0.5.2"  ETV
vector 1064  CAIN.eNodeB.sctp  "Peer Rwnd 1"  ETV
vector 1369  CAIN.eNodeB.sctp  "Fast Recovery State 1:10.0.4.2"  ETV
vector 1396  CAIN.eNodeB.sctp  "Fast Recovery State 1:10.0.3.2"  ETV
vector 1113  CAIN.eNodeB1.sctp  "Peer Rwnd 2"  ETV
vector 1423  CAIN.eNodeB1.sctp  "Fast Recovery State 2:10.0.4.1"  ETV
vector 1450  CAIN.eNodeB1.sctp  "Fast Recovery State 2:10.0.2.2"  ETV
vector 1195  CAIN.eNodeB1.sctp  "Slow Start Threshold 5:10.0.2.2"  ETV
vector 1196  CAIN.eNodeB1.sctp  "Congestion Window 5:10.0.2.2"  ETV
vector 1197  CAIN.eNodeB1.sctp  "Bandwidth 5:10.0.2.2"  ETV
vector 1200  CAIN.eNodeB1.sctp  "HB Sent 5:10.0.2.2"  ETV
vector 1193  CAIN.eNodeB1.sctp  "RTO 5:10.0.2.2"  ETV
vector 1168  CAIN.eNodeB1.sctp  "Slow Start Threshold 5:10.0.4.1"  ETV
vector 1169  CAIN.eNodeB1.sctp  "Congestion Window 5:10.0.4.1"  ETV
vector 1170  CAIN.eNodeB1.sctp  "Bandwidth 5:10.0.4.1"  ETV
vector 1173  CAIN.eNodeB1.sctp  "HB Sent 5:10.0.4.1"  ETV
vector 1166  CAIN.eNodeB1.sctp  "RTO 5:10.0.4.1"  ETV
vector 1222  CAIN.eNodeB1.sctp  "Slow Start Threshold 5:10.0.5.1"  ETV
vector 1223  CAIN.eNodeB1.sctp  "Congestion Window 5:10.0.5.1"  ETV
vector 1224  CAIN.eNodeB1.sctp  "Bandwidth 5:10.0.5.1"  ETV
vector 1220  CAIN.eNodeB1.sctp  "RTO 5:10.0.5.1"  ETV
vector 1298  CAIN.eNodeB.sctp  "Slow Start Threshold 6:10.0.3.2"  ETV
vector 1299  CAIN.eNodeB.sctp  "Congestion Window 6:10.0.3.2"  ETV
vector 1300  CAIN.eNodeB.sctp  "Bandwidth 6:10.0.3.2"  ETV
vector 1303  CAIN.eNodeB.sctp  "HB Sent 6:10.0.3.2"  ETV
vector 1296  CAIN.eNodeB.sctp  "RTO 6:10.0.3.2"  ETV
vector 1271  CAIN.eNodeB.sctp  "Slow Start Threshold 6:10.0.4.2"  ETV
vector 1272  CAIN.eNodeB.sctp  "Congestion Window 6:10.0.4.2"  ETV
vector 1273  CAIN.eNodeB.sctp  "Bandwidth 6:10.0.4.2"  ETV
vector 1276  CAIN.eNodeB.sctp  "HB Sent 6:10.0.4.2"  ETV
vector 1269  CAIN.eNodeB.sctp  "RTO 6:10.0.4.2"  ETV
vector 1325  CAIN.eNodeB.sctp  "Slow Start Threshold 6:10.0.5.2"  ETV
vector 1326  CAIN.eNodeB.sctp  "Congestion Window 6:10.0.5.2"  ETV
vector 1327  CAIN.eNodeB.sctp  "Bandwidth 6:10.0.5.2"  ETV
vector 1323  CAIN.eNodeB.sctp  "RTO 6:10.0.5.2"  ETV
vector 1076  CAIN.eNodeB.sctp  "HB ACK Sent 1:10.0.5.2"  ETV
vector 1077  CAIN.eNodeB.sctp  "HB Received 1:10.0.5.2"  ETV
vector 1125  CAIN.eNodeB1.sctp  "HB ACK Sent 2:10.0.5.1"  ETV
vector 1126  CAIN.eNodeB1.sctp  "HB Received 2:10.0.5.1"  ETV
vector 1379  CAIN.eNodeB.sctp  "Slow Start Threshold 1:10.0.3.2"  ETV
vector 1380  CAIN.eNodeB.sctp  "Congestion Window 1:10.0.3.2"  ETV
vector 1381  CAIN.eNodeB.sctp  "Bandwidth 1:10.0.3.2"  ETV
vector 1384  CAIN.eNodeB.sctp  "HB Sent 1:10.0.3.2"  ETV
vector 1377  CAIN.eNodeB.sctp  "RTO 1:10.0.3.2"  ETV
vector 1352  CAIN.eNodeB.sctp  "Slow Start Threshold 1:10.0.4.2"  ETV
vector 1353  CAIN.eNodeB.sctp  "Congestion Window 1:10.0.4.2"  ETV
vector 1354  CAIN.eNodeB.sctp  "Bandwidth 1:10.0.4.2"  ETV
vector 1357  CAIN.eNodeB.sctp  "HB Sent 1:10.0.4.2"  ETV
vector 1350  CAIN.eNodeB.sctp  "RTO 1:10.0.4.2"  ETV
vector 1070  CAIN.eNodeB.sctp  "Slow Start Threshold 1:10.0.5.2"  ETV
vector 1071  CAIN.eNodeB.sctp  "Congestion Window 1:10.0.5.2"  ETV
vector 1072  CAIN.eNodeB.sctp  "Bandwidth 1:10.0.5.2"  ETV
vector 1068  CAIN.eNodeB.sctp  "RTO 1:10.0.5.2"  ETV
vector 1433  CAIN.eNodeB1.sctp  "Slow Start Threshold 2:10.0.2.2"  ETV
vector 1434  CAIN.eNodeB1.sctp  "Congestion Window 2:10.0.2.2"  ETV
vector 1435  CAIN.eNodeB1.sctp  "Bandwidth 2:10.0.2.2"  ETV
vector 1438  CAIN.eNodeB1.sctp  "HB Sent 2:10.0.2.2"  ETV
vector 1431  CAIN.eNodeB1.sctp  "RTO 2:10.0.2.2"  ETV
vector 1406  CAIN.eNodeB1.sctp  "Slow Start Threshold 2:10.0.4.1"  ETV
vector 1407  CAIN.eNodeB1.sctp  "Congestion Window 2:10.0.4.1"  ETV
vector 1408  CAIN.eNodeB1.sctp  "Bandwidth 2:10.0.4.1"  ETV
vector 1411  CAIN.eNodeB1.sctp  "HB Sent 2:10.0.4.1"  ETV
vector 1404  CAIN.eNodeB1.sctp  "RTO 2:10.0.4.1"  ETV
vector 1119  CAIN.eNodeB1.sctp  "Slow Start Threshold 2:10.0.5.1"  ETV
vector 1120  CAIN.eNodeB1.sctp  "Congestion Window 2:10.0.5.1"  ETV
vector 1121  CAIN.eNodeB1.sctp  "Bandwidth 2:10.0.5.1"  ETV
vector 1117  CAIN.eNodeB1.sctp  "RTO 2:10.0.5.1"  ETV
vector 1333  CAIN.eNodeB.sctp  "HB ACK Received 6:10.0.5.2"  ETV
vector 1324  CAIN.eNodeB.sctp  "RTT 6:10.0.5.2"  ETV
vector 1230  CAIN.eNodeB1.sctp  "HB ACK Received 5:10.0.5.1"  ETV
vector 1221  CAIN.eNodeB1.sctp  "RTT 5:10.0.5.1"  ETV
vector 1331  CAIN.eNodeB.sctp  "HB ACK Sent 6:10.0.5.2"  ETV
vector 1332  CAIN.eNodeB.sctp  "HB Received 6:10.0.5.2"  ETV
vector 1228  CAIN.eNodeB1.sctp  "HB ACK Sent 5:10.0.5.1"  ETV
vector 1229  CAIN.eNodeB1.sctp  "HB Received 5:10.0.5.1"  ETV
vector 1127  CAIN.eNodeB1.sctp  "HB ACK Received 2:10.0.5.1"  ETV
vector 1118  CAIN.eNodeB1.sctp  "RTT 2:10.0.5.1"  ETV
vector 1078  CAIN.eNodeB.sctp  "HB ACK Received 1:10.0.5.2"  ETV
vector 1069  CAIN.eNodeB.sctp  "RTT 1:10.0.5.2"  ETV
vector 96  CAIN.eNodeB.nic.mac  receivedPacketFromLowerLayer:vector(packetBytes)  ETV
attr interpolationmode  none
attr source  receivedPacketFromLowerLayer
vector 1465  CAIN.eNodeB.sctp  "SendQueue of Association 6"  ETV
vector 1328  CAIN.eNodeB.sctp  "TSN Sent 6:10.0.5.2"  ETV
vector 1335  CAIN.eNodeB.sctp  "Outstanding Bytes 6:10.0.5.2"  ETV
vector 1008  CAIN.eNodeB.sctp  "Outstanding Bytes 3:Total"  ETV
vector 1334  CAIN.eNodeB.sctp  "Queued Sent Bytes 6:10.0.5.2"  ETV
vector 1007  CAIN.eNodeB.sctp  "Queued Sent Bytes 3:Total"  ETV
vector 1123  CAIN.eNodeB1.sctp  "TSN Received 2:10.0.5.1"  ETV
vector 1099  CAIN.eNodeB1.sctp  "Queued Received Bytes 2:Total"  ETV
vector 1095  CAIN.eNodeB1.sctp  "Advertised Receiver Window 2"  ETV
vector 1104  CAIN.eNodeB1.sctp  "Number of Total Gap Blocks Stored 2"  ETV
vector 1105  CAIN.eNodeB1.sctp  "Number of Revokable Gap Blocks Stored 2"  ETV
vector 1106  CAIN.eNodeB1.sctp  "Number of Non-Revokable Gap Blocks Stored 2"  ETV
vector 1107  CAIN.eNodeB1.sctp  "Number of Duplicate TSNs Stored 2"  ETV
vector 1111  CAIN.eNodeB1.sctp  "Length of SACK Sent 2"  ETV
vector 1108  CAIN.eNodeB1.sctp  "Number of Revokable Gap Blocks Sent 2"  ETV
vector 1109  CAIN.eNodeB1.sctp  "Number of Non-Revokable Gap Blocks Sent 2"  ETV
vector 1110  CAIN.eNodeB1.sctp  "Number of Duplicate TSNs Sent 2"  ETV
vector 1115  CAIN.eNodeB1.sctp  "End to End Delay of Association 2"  ETV
vector 199  CAIN.eNodeB1.x2App[0].client  rcvdPk:vector(packetBytes)  ETV
attr interpolationmode  none
attr source  rcvdPk
attr title  "packets received, vector(packetBytes)"
vector 1464  CAIN.eNodeB.sctp  "Number of Gap Blocks in Last SACK of Association 6"  ETV
vector 1009  CAIN.eNodeB.sctp  "Number of Revokable Gap Blocks in SACK 3"  ETV
vector 1010  CAIN.eNodeB.sctp  "Number of Non-Revokable Gap Blocks in SACK 3"  ETV
vector 1345  CAIN.eNodeB.sctp  "TSN Acked CumAck 6:10.0.5.2"  ETV
vector 1311  CAIN.eNodeB.sctp  "Number of Gap Acked Chunks in Last SACK 6:10.0.3.2"  ETV
vector 1312  CAIN.eNodeB.sctp  "Number of Non-Revokable Gap Acked Chunks in Last SACK 6:10.0.3.2"  ETV
vector 1313  CAIN.eNodeB.sctp  "Number of Gap Missed Chunks in Last SACK 6:10.0.3.2"  ETV
vector 1284  CAIN.eNodeB.sctp  "Number of Gap Acked Chunks in Last SACK 6:10.0.4.2"  ETV
vector 1285  CAIN.eNodeB.sctp  "Number of Non-Revokable Gap Acked Chunks in Last SACK 6:10.0.4.2"  ETV
vector 1286  CAIN.eNodeB.sctp  "Number of Gap Missed Chunks in Last SACK 6:10.0.4.2"  ETV
vector 1338  CAIN.eNodeB.sctp  "Number of Gap Acked Chunks in Last SACK 6:10.0.5.2"  ETV
vector 1339  CAIN.eNodeB.sctp  "Number of Non-Revokable Gap Acked Chunks in Last SACK 6:10.0.5.2"  ETV
vector 1340  CAIN.eNodeB.sctp  "Number of Gap Missed Chunks in Last SACK 6:10.0.5.2"  ETV
vector 1019  CAIN.eNodeB.sctp  "Arwnd in Last SACK 3"  ETV
vector 1347  CAIN.eNodeB.sctp  "TSN PseudoCumAck 6:10.0.5.2"  ETV
vector 1348  CAIN.eNodeB.sctp  "TSN RTXPseudoCumAck 6:10.0.5.2"  ETV
vector 1341  CAIN.eNodeB.sctp  "Partial Bytes Acked 6:10.0.5.2"  ETV
vector 1493  CAIN.ueD2DTx[16].tcp  tcpRcvQueueBytes  ETV
vector 1480  CAIN.ueD2DTx[16].tcp  "advertised window"  ETV
vector 1479  CAIN.ueD2DTx[16].tcp  "receive window"  ETV
vector 1482  CAIN.ueD2DTx[16].tcp  "sent ack"  ETV
vector 717  CAIN.ueD2DTx[16].nic.pdcpRrc  receivedPacketFromUpperLayer:vector(packetBytes)  ETV
attr interpolationmode  none
attr source  receivedPacketFromUpperLayer
vector 720  CAIN.ueD2DTx[16].nic.pdcpRrc  sentPacketToLowerLayer:vector(packetBytes)  ETV
attr interpolationmode  none
attr source  sentPacketToLowerLayer
vector 721  CAIN.ueD2DTx[16].nic.mac  receivedPacketFromUpperLayer:vector(packetBytes)  ETV
attr interpolationmode  none
attr source  receivedPacketFromUpperLayer
vector 724  CAIN.ueD2DTx[16].nic.mac  sentPacketToLowerLayer:vector(packetBytes)  ETV
attr interpolationmode  none
attr source  sentPacketToLowerLayer
vector 111  CAIN.eNodeB.nic.mac  racpkt:vector  ETV
attr interpolationmode  none
attr title  "eNB received racpkt message, vector"
vector 112  CAIN.eNodeB.nic.mac  racDistanceSignal:vector  ETV
attr interpolationmode  none
attr title  "Rac distance to enb, vector"
vector 113  CAIN.eNodeB.nic.mac  racServedDevsSignal:vector  ETV
attr interpolationmode  none
attr title  "# of devices served on rac arriavall, vector"
vector 98  CAIN.eNodeB.nic.mac  sentPacketToLowerLayer:vector(packetBytes)  ETV
attr interpolationmode  none
attr source  sentPacketToLowerLayer
vector 722  CAIN.ueD2DTx[16].nic.mac  receivedPacketFromLowerLayer:vector(packetBytes)  ETV
attr interpolationmode  none
attr source  receivedPacketFromLowerLayer
vector 723  CAIN.ueD2DTx[16].nic.mac  sentPacketToUpperLayer:vector(packetBytes)  ETV
attr interpolationmode  none
attr source  sentPacketToUpperLayer
vector 1517  CAIN.ueD2DTx[21].tcp  tcpRcvQueueBytes  ETV
vector 1504  CAIN.ueD2DTx[21].tcp  "advertised window"  ETV
vector 1503  CAIN.ueD2DTx[21].tcp  "receive window"  ETV
vector 1506  CAIN.ueD2DTx[21].tcp  "sent ack"  ETV
vector 877  CAIN.ueD2DTx[21].nic.pdcpRrc  receivedPacketFromUpperLayer:vector(packetBytes)  ETV
attr interpolationmode  none
attr source  receivedPacketFromUpperLayer
vector 880  CAIN.ueD2DTx[21].nic.pdcpRrc  sentPacketToLowerLayer:vector(packetBytes)  ETV
attr interpolationmode  none
attr source  sentPacketToLowerLayer
vector 881  CAIN.ueD2DTx[21].nic.mac  receivedPacketFromUpperLayer:vector(packetBytes)  ETV
attr interpolationmode  none
attr source  receivedPacketFromUpperLayer
vector 891  CAIN.ueD2DTx[21].nic.mac  CainHopMessageSent:vector  ETV
attr interpolationmode  none
attr title  "# of Sent CAIN hop message, vector"
vector 884  CAIN.ueD2DTx[21].nic.mac  sentPacketToLowerLayer:vector(packetBytes)  ETV
attr interpolationmode  none
attr source  sentPacketToLowerLayer
vector 658  CAIN.ueD2DTx[14].nic.mac  receivedPacketFromLowerLayer:vector(packetBytes)  ETV
attr interpolationmode  none
attr source  receivedPacketFromLowerLayer
vector 660  CAIN.ueD2DTx[14].nic.mac  sentPacketToLowerLayer:vector(packetBytes)  ETV
attr interpolationmode  none
attr source  sentPacketToLowerLayer
vector 530  CAIN.ueD2DTx[10].nic.mac  receivedPacketFromLowerLayer:vector(packetBytes)  ETV
attr interpolationmode  none
attr source  receivedPacketFromLowerLayer
vector 532  CAIN.ueD2DTx[10].nic.mac  sentPacketToLowerLayer:vector(packetBytes)  ETV
attr interpolationmode  none
attr source  sentPacketToLowerLayer
vector 106  CAIN.eNodeB.nic.mac  DistanceSignal:vector  ETV
attr interpolationmode  none
attr title  "Distance to enb, vector"
vector 101  CAIN.eNodeB.nic.mac  CainHopMessage:vector  ETV
attr interpolationmode  none
attr title  "eNB received CAIN hop message, vector"
vector 1541  CAIN.ueD2DTx[3].tcp  tcpRcvQueueBytes  ETV
vector 1528  CAIN.ueD2DTx[3].tcp  "advertised window"  ETV
vector 1527  CAIN.ueD2DTx[3].tcp  "receive window"  ETV
vector 1530  CAIN.ueD2DTx[3].tcp  "sent ack"  ETV
vector 301  CAIN.ueD2DTx[3].nic.pdcpRrc  receivedPacketFromUpperLayer:vector(packetBytes)  ETV
attr interpolationmode  none
attr source  receivedPacketFromUpperLayer
vector 304  CAIN.ueD2DTx[3].nic.pdcpRrc  sentPacketToLowerLayer:vector(packetBytes)  ETV
attr interpolationmode  none
attr source  sentPacketToLowerLayer
vector 305  CAIN.ueD2DTx[3].nic.mac  receivedPacketFromUpperLayer:vector(packetBytes)  ETV
attr interpolationmode  none
attr source  receivedPacketFromUpperLayer
vector 315  CAIN.ueD2DTx[3].nic.mac  CainHopMessageSent:vector  ETV
attr interpolationmode  none
attr title  "# of Sent CAIN hop message, vector"
vector 308  CAIN.ueD2DTx[3].nic.mac  sentPacketToLowerLayer:vector(packetBytes)  ETV
attr interpolationmode  none
attr source  sentPacketToLowerLayer
vector 537  CAIN.ueD2DTx[10].nic.mac  DropedHopMessage:vector  ETV
attr interpolationmode  none
attr title  "Droped Hop CAIN message due to RB not available, vector"
vector 1565  CAIN.ueD2DTx[20].tcp  tcpRcvQueueBytes  ETV
vector 1552  CAIN.ueD2DTx[20].tcp  "advertised window"  ETV
vector 1551  CAIN.ueD2DTx[20].tcp  "receive window"  ETV
vector 1554  CAIN.ueD2DTx[20].tcp  "sent ack"  ETV
vector 845  CAIN.ueD2DTx[20].nic.pdcpRrc  receivedPacketFromUpperLayer:vector(packetBytes)  ETV
attr interpolationmode  none
attr source  receivedPacketFromUpperLayer
vector 848  CAIN.ueD2DTx[20].nic.pdcpRrc  sentPacketToLowerLayer:vector(packetBytes)  ETV
attr interpolationmode  none
attr source  sentPacketToLowerLayer
vector 849  CAIN.ueD2DTx[20].nic.mac  receivedPacketFromUpperLayer:vector(packetBytes)  ETV
attr interpolationmode  none
attr source  receivedPacketFromUpperLayer
vector 859  CAIN.ueD2DTx[20].nic.mac  CainHopMessageSent:vector  ETV
attr interpolationmode  none
attr title  "# of Sent CAIN hop message, vector"
vector 852  CAIN.ueD2DTx[20].nic.mac  sentPacketToLowerLayer:vector(packetBytes)  ETV
attr interpolationmode  none
attr source  sentPacketToLowerLayer
vector 946  CAIN.ueD2DTx[23].nic.mac  receivedPacketFromLowerLayer:vector(packetBytes)  ETV
attr interpolationmode  none
attr source  receivedPacketFromLowerLayer
vector 948  CAIN.ueD2DTx[23].nic.mac  sentPacketToLowerLayer:vector(packetBytes)  ETV
attr interpolationmode  none
attr source  sentPacketToLowerLayer
vector 1589  CAIN.ueD2DTx[7].tcp  tcpRcvQueueBytes  ETV
vector 1576  CAIN.ueD2DTx[7].tcp  "advertised window"  ETV
vector 1575  CAIN.ueD2DTx[7].tcp  "receive window"  ETV
vector 1578  CAIN.ueD2DTx[7].tcp  "sent ack"  ETV
vector 429  CAIN.ueD2DTx[7].nic.pdcpRrc  receivedPacketFromUpperLayer:vector(packetBytes)  ETV
attr interpolationmode  none
attr source  receivedPacketFromUpperLayer
vector 432  CAIN.ueD2DTx[7].nic.pdcpRrc  sentPacketToLowerLayer:vector(packetBytes)  ETV
attr interpolationmode  none
attr source  sentPacketToLowerLayer
vector 433  CAIN.ueD2DTx[7].nic.mac  receivedPacketFromUpperLayer:vector(packetBytes)  ETV
attr interpolationmode  none
attr source  receivedPacketFromUpperLayer
vector 442  CAIN.ueD2DTx[7].nic.mac  CainMessageSent:vector  ETV
attr interpolationmode  none
attr title  "# of Sent CAIN message, vector"
vector 436  CAIN.ueD2DTx[7].nic.mac  sentPacketToLowerLayer:vector(packetBytes)  ETV
attr interpolationmode  none
attr source  sentPacketToLowerLayer
vector 274  CAIN.ueD2DTx[2].nic.mac  receivedPacketFromLowerLayer:vector(packetBytes)  ETV
attr interpolationmode  none
attr source  receivedPacketFromLowerLayer
vector 276  CAIN.ueD2DTx[2].nic.mac  sentPacketToLowerLayer:vector(packetBytes)  ETV
attr interpolationmode  none
attr source  sentPacketToLowerLayer
vector 109  CAIN.eNodeB.nic.mac  ServedHopDevs:vector  ETV
attr interpolationmode  none
attr title  "# of devices served on hop forwarding, vector"
vector 1613  CAIN.ueD2DTx[18].tcp  tcpRcvQueueBytes  ETV
vector 1600  CAIN.ueD2DTx[18].tcp  "advertised window"  ETV
vector 1599  CAIN.ueD2DTx[18].tcp  "receive window"  ETV
vector 1602  CAIN.ueD2DTx[18].tcp  "sent ack"  ETV
vector 781  CAIN.ueD2DTx[18].nic.pdcpRrc  receivedPacketFromUpperLayer:vector(packetBytes)  ETV
attr interpolationmode  none
attr source  receivedPacketFromUpperLayer
vector 784  CAIN.ueD2DTx[18].nic.pdcpRrc  sentPacketToLowerLayer:vector(packetBytes)  ETV
attr interpolationmode  none
attr source  sentPacketToLowerLayer
vector 785  CAIN.ueD2DTx[18].nic.mac  receivedPacketFromUpperLayer:vector(packetBytes)  ETV
attr interpolationmode  none
attr source  receivedPacketFromUpperLayer
vector 788  CAIN.ueD2DTx[18].nic.mac  sentPacketToLowerLayer:vector(packetBytes)  ETV
attr interpolationmode  none
attr source  sentPacketToLowerLayer
vector 100  CAIN.eNodeB.nic.mac  CainMessage:vector  ETV
attr interpolationmode  none
attr title  "eNB received CAIN message, vector"
vector 280  CAIN.ueD2DTx[2].nic.mac  DropedCainMessage:vector  ETV
attr interpolationmode  none
attr title  "Droped CAIN message due to RB not available, vector"
vector 786  CAIN.ueD2DTx[18].nic.mac  receivedPacketFromLowerLayer:vector(packetBytes)  ETV
attr interpolationmode  none
attr source  receivedPacketFromLowerLayer
vector 1637  CAIN.ueD2DTx[10].tcp  tcpRcvQueueBytes  ETV
vector 1624  CAIN.ueD2DTx[10].tcp  "advertised window"  ETV
vector 1623  CAIN.ueD2DTx[10].tcp  "receive window"  ETV
vector 1626  CAIN.ueD2DTx[10].tcp  "sent ack"  ETV
vector 525  CAIN.ueD2DTx[10].nic.pdcpRrc  receivedPacketFromUpperLayer:vector(packetBytes)  ETV
attr interpolationmode  none
attr source  receivedPacketFromUpperLayer
vector 528  CAIN.ueD2DTx[10].nic.pdcpRrc  sentPacketToLowerLayer:vector(packetBytes)  ETV
attr interpolationmode  none
attr source  sentPacketToLowerLayer
vector 529  CAIN.ueD2DTx[10].nic.mac  receivedPacketFromUpperLayer:vector(packetBytes)  ETV
attr interpolationmode  none
attr source  receivedPacketFromUpperLayer
vector 787  CAIN.ueD2DTx[18].nic.mac  sentPacketToUpperLayer:vector(packetBytes)  ETV
attr interpolationmode  none
attr source  sentPacketToUpperLayer
vector 531  CAIN.ueD2DTx[10].nic.mac  sentPacketToUpperLayer:vector(packetBytes)  ETV
attr interpolationmode  none
attr source  sentPacketToUpperLayer
vector 1661  CAIN.ueD2DTx[8].tcp  tcpRcvQueueBytes  ETV
vector 1648  CAIN.ueD2DTx[8].tcp  "advertised window"  ETV
vector 1647  CAIN.ueD2DTx[8].tcp  "receive window"  ETV
vector 1650  CAIN.ueD2DTx[8].tcp  "sent ack"  ETV
vector 461  CAIN.ueD2DTx[8].nic.pdcpRrc  receivedPacketFromUpperLayer:vector(packetBytes)  ETV
attr interpolationmode  none
attr source  receivedPacketFromUpperLayer
vector 464  CAIN.ueD2DTx[8].nic.pdcpRrc  sentPacketToLowerLayer:vector(packetBytes)  ETV
attr interpolationmode  none
attr source  sentPacketToLowerLayer
vector 465  CAIN.ueD2DTx[8].nic.mac  receivedPacketFromUpperLayer:vector(packetBytes)  ETV
attr interpolationmode  none
attr source  receivedPacketFromUpperLayer
vector 1685  CAIN.ueD2DTx[9].tcp  tcpRcvQueueBytes  ETV
vector 1672  CAIN.ueD2DTx[9].tcp  "advertised window"  ETV
vector 1671  CAIN.ueD2DTx[9].tcp  "receive window"  ETV
vector 1674  CAIN.ueD2DTx[9].tcp  "sent ack"  ETV
vector 493  CAIN.ueD2DTx[9].nic.pdcpRrc  receivedPacketFromUpperLayer:vector(packetBytes)  ETV
attr interpolationmode  none
attr source  receivedPacketFromUpperLayer
vector 496  CAIN.ueD2DTx[9].nic.pdcpRrc  sentPacketToLowerLayer:vector(packetBytes)  ETV
attr interpolationmode  none
attr source  sentPacketToLowerLayer
vector 497  CAIN.ueD2DTx[9].nic.mac  receivedPacketFromUpperLayer:vector(packetBytes)  ETV
attr interpolationmode  none
attr source  receivedPacketFromUpperLayer
vector 474  CAIN.ueD2DTx[8].nic.mac  CainMessageSent:vector  ETV
attr interpolationmode  none
attr title  "# of Sent CAIN message, vector"
vector 468  CAIN.ueD2DTx[8].nic.mac  sentPacketToLowerLayer:vector(packetBytes)  ETV
attr interpolationmode  none
attr source  sentPacketToLowerLayer
vector 500  CAIN.ueD2DTx[9].nic.mac  sentPacketToLowerLayer:vector(packetBytes)  ETV
attr interpolationmode  none
attr source  sentPacketToLowerLayer
vector 1709  CAIN.ueD2DTx[14].tcp  tcpRcvQueueBytes  ETV
vector 1696  CAIN.ueD2DTx[14].tcp  "advertised window"  ETV
vector 1695  CAIN.ueD2DTx[14].tcp  "receive window"  ETV
vector 1698  CAIN.ueD2DTx[14].tcp  "sent ack"  ETV
vector 653  CAIN.ueD2DTx[14].nic.pdcpRrc  receivedPacketFromUpperLayer:vector(packetBytes)  ETV
attr interpolationmode  none
attr source  receivedPacketFromUpperLayer
vector 656  CAIN.ueD2DTx[14].nic.pdcpRrc  sentPacketToLowerLayer:vector(packetBytes)  ETV
attr interpolationmode  none
attr source  sentPacketToLowerLayer
vector 657  CAIN.ueD2DTx[14].nic.mac  receivedPacketFromUpperLayer:vector(packetBytes)  ETV
attr interpolationmode  none
attr source  receivedPacketFromUpperLayer
vector 666  CAIN.ueD2DTx[14].nic.mac  CainMessageSent:vector  ETV
attr interpolationmode  none
attr title  "# of Sent CAIN message, vector"
vector 1733  CAIN.ueD2DTx[22].tcp  tcpRcvQueueBytes  ETV
vector 1720  CAIN.ueD2DTx[22].tcp  "advertised window"  ETV
vector 1719  CAIN.ueD2DTx[22].tcp  "receive window"  ETV
vector 1722  CAIN.ueD2DTx[22].tcp  "sent ack"  ETV
vector 909  CAIN.ueD2DTx[22].nic.pdcpRrc  receivedPacketFromUpperLayer:vector(packetBytes)  ETV
attr interpolationmode  none
attr source  receivedPacketFromUpperLayer
vector 912  CAIN.ueD2DTx[22].nic.pdcpRrc  sentPacketToLowerLayer:vector(packetBytes)  ETV
attr interpolationmode  none
attr source  sentPacketToLowerLayer
vector 913  CAIN.ueD2DTx[22].nic.mac  receivedPacketFromUpperLayer:vector(packetBytes)  ETV
attr interpolationmode  none
attr source  receivedPacketFromUpperLayer
vector 923  CAIN.ueD2DTx[22].nic.mac  CainHopMessageSent:vector  ETV
attr interpolationmode  none
attr title  "# of Sent CAIN hop message, vector"
vector 916  CAIN.ueD2DTx[22].nic.mac  sentPacketToLowerLayer:vector(packetBytes)  ETV
attr interpolationmode  none
attr source  sentPacketToLowerLayer
vector 498  CAIN.ueD2DTx[9].nic.mac  receivedPacketFromLowerLayer:vector(packetBytes)  ETV
attr interpolationmode  none
attr source  receivedPacketFromLowerLayer
vector 499  CAIN.ueD2DTx[9].nic.mac  sentPacketToUpperLayer:vector(packetBytes)  ETV
attr interpolationmode  none
attr source  sentPacketToUpperLayer
vector 108  CAIN.eNodeB.nic.mac  ServedDevs:vector  ETV
attr interpolationmode  none
attr title  "# of devices served on cain forwarding, vector"
vector 1461  CAIN.eNodeB1.sctp  "SendQueue of Association 5"  ETV
vector 1225  CAIN.eNodeB1.sctp  "TSN Sent 5:10.0.5.1"  ETV
vector 1232  CAIN.eNodeB1.sctp  "Outstanding Bytes 5:10.0.5.1"  ETV
vector 1030  CAIN.eNodeB1.sctp  "Outstanding Bytes 4:Total"  ETV
vector 1231  CAIN.eNodeB1.sctp  "Queued Sent Bytes 5:10.0.5.1"  ETV
vector 1029  CAIN.eNodeB1.sctp  "Queued Sent Bytes 4:Total"  ETV
vector 1074  CAIN.eNodeB.sctp  "TSN Received 1:10.0.5.2"  ETV
vector 1050  CAIN.eNodeB.sctp  "Queued Received Bytes 1:Total"  ETV
vector 1046  CAIN.eNodeB.sctp  "Advertised Receiver Window 1"  ETV
vector 1055  CAIN.eNodeB.sctp  "Number of Total Gap Blocks Stored 1"  ETV
vector 1056  CAIN.eNodeB.sctp  "Number of Revokable Gap Blocks Stored 1"  ETV
vector 1057  CAIN.eNodeB.sctp  "Number of Non-Revokable Gap Blocks Stored 1"  ETV
vector 1058  CAIN.eNodeB.sctp  "Number of Duplicate TSNs Stored 1"  ETV
vector 1062  CAIN.eNodeB.sctp  "Length of SACK Sent 1"  ETV
vector 1059  CAIN.eNodeB.sctp  "Number of Revokable Gap Blocks Sent 1"  ETV
vector 1060  CAIN.eNodeB.sctp  "Number of Non-Revokable Gap Blocks Sent 1"  ETV
vector 1061  CAIN.eNodeB.sctp  "Number of Duplicate TSNs Sent 1"  ETV
vector 1066  CAIN.eNodeB.sctp  "End to End Delay of Association 1"  ETV
vector 141  CAIN.eNodeB.x2App[0].client  rcvdPk:vector(packetBytes)  ETV
attr interpolationmode  none
attr source  rcvdPk
attr title  "packets received, vector(packetBytes)"
vector 1460  CAIN.eNodeB1.sctp  "Number of Gap Blocks in Last SACK of Association 5"  ETV
vector 1031  CAIN.eNodeB1.sctp  "Number of Revokable Gap Blocks in SACK 4"  ETV
vector 1032  CAIN.eNodeB1.sctp  "Number of Non-Revokable Gap Blocks in SACK 4"  ETV
vector 1242  CAIN.eNodeB1.sctp  "TSN Acked CumAck 5:10.0.5.1"  ETV
vector 1208  CAIN.eNodeB1.sctp  "Number of Gap Acked Chunks in Last SACK 5:10.0.2.2"  ETV
vector 1209  CAIN.eNodeB1.sctp  "Number of Non-Revokable Gap Acked Chunks in Last SACK 5:10.0.2.2"  ETV
vector 1210  CAIN.eNodeB1.sctp  "Number of Gap Missed Chunks in Last SACK 5:10.0.2.2"  ETV
vector 1181  CAIN.eNodeB1.sctp  "Number of Gap Acked Chunks in Last SACK 5:10.0.4.1"  ETV
vector 1182  CAIN.eNodeB1.sctp  "Number of Non-Revokable Gap Acked Chunks in Last SACK 5:10.0.4.1"  ETV
vector 1183  CAIN.eNodeB1.sctp  "Number of Gap Missed Chunks in Last SACK 5:10.0.4.1"  ETV
vector 1235  CAIN.eNodeB1.sctp  "Number of Gap Acked Chunks in Last SACK 5:10.0.5.1"  ETV
vector 1236  CAIN.eNodeB1.sctp  "Number of Non-Revokable Gap Acked Chunks in Last SACK 5:10.0.5.1"  ETV
vector 1237  CAIN.eNodeB1.sctp  "Number of Gap Missed Chunks in Last SACK 5:10.0.5.1"  ETV
vector 1041  CAIN.eNodeB1.sctp  "Arwnd in Last SACK 4"  ETV
vector 1244  CAIN.eNodeB1.sctp  "TSN PseudoCumAck 5:10.0.5.1"  ETV
vector 1245  CAIN.eNodeB1.sctp  "TSN RTXPseudoCumAck 5:10.0.5.1"  ETV
vector 1238  CAIN.eNodeB1.sctp  "Partial Bytes Acked 5:10.0.5.1"  ETV
vector 1757  CAIN.ueD2DTx[4].tcp  tcpRcvQueueBytes  ETV
vector 1744  CAIN.ueD2DTx[4].tcp  "advertised window"  ETV
vector 1743  CAIN.ueD2DTx[4].tcp  "receive window"  ETV
vector 1746  CAIN.ueD2DTx[4].tcp  "sent ack"  ETV
vector 333  CAIN.ueD2DTx[4].nic.pdcpRrc  receivedPacketFromUpperLayer:vector(packetBytes)  ETV
attr interpolationmode  none
attr source  receivedPacketFromUpperLayer
vector 336  CAIN.ueD2DTx[4].nic.pdcpRrc  sentPacketToLowerLayer:vector(packetBytes)  ETV
attr interpolationmode  none
attr source  sentPacketToLowerLayer
vector 337  CAIN.ueD2DTx[4].nic.mac  receivedPacketFromUpperLayer:vector(packetBytes)  ETV
attr interpolationmode  none
attr source  receivedPacketFromUpperLayer
vector 347  CAIN.ueD2DTx[4].nic.mac  CainHopMessageSent:vector  ETV
attr interpolationmode  none
attr title  "# of Sent CAIN hop message, vector"
vector 340  CAIN.ueD2DTx[4].nic.mac  sentPacketToLowerLayer:vector(packetBytes)  ETV
attr interpolationmode  none
attr source  sentPacketToLowerLayer
vector 850  CAIN.ueD2DTx[20].nic.mac  receivedPacketFromLowerLayer:vector(packetBytes)  ETV
attr interpolationmode  none
attr source  receivedPacketFromLowerLayer
vector 154  CAIN.eNodeB1.nic.mac  receivedPacketFromLowerLayer:vector(packetBytes)  ETV
attr interpolationmode  none
attr source  receivedPacketFromLowerLayer
vector 1781  CAIN.ueD2DTx[6].tcp  tcpRcvQueueBytes  ETV
vector 1768  CAIN.ueD2DTx[6].tcp  "advertised window"  ETV
vector 1767  CAIN.ueD2DTx[6].tcp  "receive window"  ETV
vector 1770  CAIN.ueD2DTx[6].tcp  "sent ack"  ETV
vector 397  CAIN.ueD2DTx[6].nic.pdcpRrc  receivedPacketFromUpperLayer:vector(packetBytes)  ETV
attr interpolationmode  none
attr source  receivedPacketFromUpperLayer
vector 400  CAIN.ueD2DTx[6].nic.pdcpRrc  sentPacketToLowerLayer:vector(packetBytes)  ETV
attr interpolationmode  none
attr source  sentPacketToLowerLayer
vector 401  CAIN.ueD2DTx[6].nic.mac  receivedPacketFromUpperLayer:vector(packetBytes)  ETV
attr interpolationmode  none
attr source  receivedPacketFromUpperLayer
vector 404  CAIN.ueD2DTx[6].nic.mac  sentPacketToLowerLayer:vector(packetBytes)  ETV
attr interpolationmode  none
attr source  sentPacketToLowerLayer
vector 562  CAIN.ueD2DTx[11].nic.mac  receivedPacketFromLowerLayer:vector(packetBytes)  ETV
attr interpolationmode  none
attr source  receivedPacketFromLowerLayer
vector 564  CAIN.ueD2DTx[11].nic.mac  sentPacketToLowerLayer:vector(packetBytes)  ETV
attr interpolationmode  none
attr source  sentPacketToLowerLayer
vector 169  CAIN.eNodeB1.nic.mac  racpkt:vector  ETV
attr interpolationmode  none
attr title  "eNB received racpkt message, vector"
vector 170  CAIN.eNodeB1.nic.mac  racDistanceSignal:vector  ETV
attr interpolationmode  none
attr title  "Rac distance to enb, vector"
vector 171  CAIN.eNodeB1.nic.mac  racServedDevsSignal:vector  ETV
attr interpolationmode  none
attr title  "# of devices served on rac arriavall, vector"
vector 156  CAIN.eNodeB1.nic.mac  sentPacketToLowerLayer:vector(packetBytes)  ETV
attr interpolationmode  none
attr source  sentPacketToLowerLayer
vector 402  CAIN.ueD2DTx[6].nic.mac  receivedPacketFromLowerLayer:vector(packetBytes)  ETV
attr interpolationmode  none
attr source  receivedPacketFromLowerLayer
vector 1805  CAIN.ueD2DTx[13].tcp  tcpRcvQueueBytes  ETV
vector 1792  CAIN.ueD2DTx[13].tcp  "advertised window"  ETV
vector 1791  CAIN.ueD2DTx[13].tcp  "receive window"  ETV
vector 1794  CAIN.ueD2DTx[13].tcp  "sent ack"  ETV
vector 621  CAIN.ueD2DTx[13].nic.pdcpRrc  receivedPacketFromUpperLayer:vector(packetBytes)  ETV
attr interpolationmode  none
attr source  receivedPacketFromUpperLayer
vector 624  CAIN.ueD2DTx[13].nic.pdcpRrc  sentPacketToLowerLayer:vector(packetBytes)  ETV
attr interpolationmode  none
attr source  sentPacketToLowerLayer
vector 625  CAIN.ueD2DTx[13].nic.mac  receivedPacketFromUpperLayer:vector(packetBytes)  ETV
attr interpolationmode  none
attr source  receivedPacketFromUpperLayer
vector 628  CAIN.ueD2DTx[13].nic.mac  sentPacketToLowerLayer:vector(packetBytes)  ETV
attr interpolationmode  none
attr source  sentPacketToLowerLayer
vector 1829  CAIN.ueD2DTx[11].tcp  tcpRcvQueueBytes  ETV
vector 1816  CAIN.ueD2DTx[11].tcp  "advertised window"  ETV
vector 1815  CAIN.ueD2DTx[11].tcp  "receive window"  ETV
vector 1818  CAIN.ueD2DTx[11].tcp  "sent ack"  ETV
vector 557  CAIN.ueD2DTx[11].nic.pdcpRrc  receivedPacketFromUpperLayer:vector(packetBytes)  ETV
attr interpolationmode  none
attr source  receivedPacketFromUpperLayer
vector 560  CAIN.ueD2DTx[11].nic.pdcpRrc  sentPacketToLowerLayer:vector(packetBytes)  ETV
attr interpolationmode  none
attr source  sentPacketToLowerLayer
vector 561  CAIN.ueD2DTx[11].nic.mac  receivedPacketFromUpperLayer:vector(packetBytes)  ETV
attr interpolationmode  none
attr source  receivedPacketFromUpperLayer
vector 626  CAIN.ueD2DTx[13].nic.mac  receivedPacketFromLowerLayer:vector(packetBytes)  ETV
attr interpolationmode  none
attr source  receivedPacketFromLowerLayer
vector 1853  CAIN.ueD2DTx[1].tcp  tcpRcvQueueBytes  ETV
vector 1840  CAIN.ueD2DTx[1].tcp  "advertised window"  ETV
vector 1839  CAIN.ueD2DTx[1].tcp  "receive window"  ETV
vector 1842  CAIN.ueD2DTx[1].tcp  "sent ack"  ETV
vector 237  CAIN.ueD2DTx[1].nic.pdcpRrc  receivedPacketFromUpperLayer:vector(packetBytes)  ETV
attr interpolationmode  none
attr source  receivedPacketFromUpperLayer
vector 240  CAIN.ueD2DTx[1].nic.pdcpRrc  sentPacketToLowerLayer:vector(packetBytes)  ETV
attr interpolationmode  none
attr source  sentPacketToLowerLayer
vector 241  CAIN.ueD2DTx[1].nic.mac  receivedPacketFromUpperLayer:vector(packetBytes)  ETV
attr interpolationmode  none
attr source  receivedPacketFromUpperLayer
vector 251  CAIN.ueD2DTx[1].nic.mac  CainHopMessageSent:vector  ETV
attr interpolationmode  none
attr title  "# of Sent CAIN hop message, vector"
vector 244  CAIN.ueD2DTx[1].nic.mac  sentPacketToLowerLayer:vector(packetBytes)  ETV
attr interpolationmode  none
attr source  sentPacketToLowerLayer
vector 1877  CAIN.ueD2DTx[15].tcp  tcpRcvQueueBytes  ETV
vector 1864  CAIN.ueD2DTx[15].tcp  "advertised window"  ETV
vector 1863  CAIN.ueD2DTx[15].tcp  "receive window"  ETV
vector 1866  CAIN.ueD2DTx[15].tcp  "sent ack"  ETV
vector 685  CAIN.ueD2DTx[15].nic.pdcpRrc  receivedPacketFromUpperLayer:vector(packetBytes)  ETV
attr interpolationmode  none
attr source  receivedPacketFromUpperLayer
vector 688  CAIN.ueD2DTx[15].nic.pdcpRrc  sentPacketToLowerLayer:vector(packetBytes)  ETV
attr interpolationmode  none
attr source  sentPacketToLowerLayer
vector 689  CAIN.ueD2DTx[15].nic.mac  receivedPacketFromUpperLayer:vector(packetBytes)  ETV
attr interpolationmode  none
attr source  receivedPacketFromUpperLayer
vector 692  CAIN.ueD2DTx[15].nic.mac  sentPacketToLowerLayer:vector(packetBytes)  ETV
attr interpolationmode  none
attr source  sentPacketToLowerLayer
vector 466  CAIN.ueD2DTx[8].nic.mac  receivedPacketFromLowerLayer:vector(packetBytes)  ETV
attr interpolationmode  none
attr source  receivedPacketFromLowerLayer
vector 690  CAIN.ueD2DTx[15].nic.mac  receivedPacketFromLowerLayer:vector(packetBytes)  ETV
attr interpolationmode  none
attr source  receivedPacketFromLowerLayer
vector 691  CAIN.ueD2DTx[15].nic.mac  sentPacketToUpperLayer:vector(packetBytes)  ETV
attr interpolationmode  none
attr source  sentPacketToUpperLayer
vector 1901  CAIN.ueD2DTx[5].tcp  tcpRcvQueueBytes  ETV
vector 1888  CAIN.ueD2DTx[5].tcp  "advertised window"  ETV
vector 1887  CAIN.ueD2DTx[5].tcp  "receive window"  ETV
vector 1890  CAIN.ueD2DTx[5].tcp  "sent ack"  ETV
vector 365  CAIN.ueD2DTx[5].nic.pdcpRrc  receivedPacketFromUpperLayer:vector(packetBytes)  ETV
attr interpolationmode  none
attr source  receivedPacketFromUpperLayer
vector 368  CAIN.ueD2DTx[5].nic.pdcpRrc  sentPacketToLowerLayer:vector(packetBytes)  ETV
attr interpolationmode  none
attr source  sentPacketToLowerLayer
vector 369  CAIN.ueD2DTx[5].nic.mac  receivedPacketFromUpperLayer:vector(packetBytes)  ETV
attr interpolationmode  none
attr source  receivedPacketFromUpperLayer
vector 1925  CAIN.ueD2DTx[12].tcp  tcpRcvQueueBytes  ETV
vector 1912  CAIN.ueD2DTx[12].tcp  "advertised window"  ETV
vector 1911  CAIN.ueD2DTx[12].tcp  "receive window"  ETV
vector 1914  CAIN.ueD2DTx[12].tcp  "sent ack"  ETV
vector 589  CAIN.ueD2DTx[12].nic.pdcpRrc  receivedPacketFromUpperLayer:vector(packetBytes)  ETV
attr interpolationmode  none
attr source  receivedPacketFromUpperLayer
vector 592  CAIN.ueD2DTx[12].nic.pdcpRrc  sentPacketToLowerLayer:vector(packetBytes)  ETV
attr interpolationmode  none
attr source  sentPacketToLowerLayer
vector 593  CAIN.ueD2DTx[12].nic.mac  receivedPacketFromUpperLayer:vector(packetBytes)  ETV
attr interpolationmode  none
attr source  receivedPacketFromUpperLayer
vector 1949  CAIN.ueD2DTx[0].tcp  tcpRcvQueueBytes  ETV
vector 1936  CAIN.ueD2DTx[0].tcp  "advertised window"  ETV
vector 1935  CAIN.ueD2DTx[0].tcp  "receive window"  ETV
vector 1938  CAIN.ueD2DTx[0].tcp  "sent ack"  ETV
vector 205  CAIN.ueD2DTx[0].nic.pdcpRrc  receivedPacketFromUpperLayer:vector(packetBytes)  ETV
attr interpolationmode  none
attr source  receivedPacketFromUpperLayer
vector 208  CAIN.ueD2DTx[0].nic.pdcpRrc  sentPacketToLowerLayer:vector(packetBytes)  ETV
attr interpolationmode  none
attr source  sentPacketToLowerLayer
vector 209  CAIN.ueD2DTx[0].nic.mac  receivedPacketFromUpperLayer:vector(packetBytes)  ETV
attr interpolationmode  none
attr source  receivedPacketFromUpperLayer
vector 212  CAIN.ueD2DTx[0].nic.mac  sentPacketToLowerLayer:vector(packetBytes)  ETV
attr interpolationmode  none
attr source  sentPacketToLowerLayer
vector 1973  CAIN.ueD2DTx[17].tcp  tcpRcvQueueBytes  ETV
vector 1960  CAIN.ueD2DTx[17].tcp  "advertised window"  ETV
vector 1959  CAIN.ueD2DTx[17].tcp  "receive window"  ETV
vector 1962  CAIN.ueD2DTx[17].tcp  "sent ack"  ETV
vector 749  CAIN.ueD2DTx[17].nic.pdcpRrc  receivedPacketFromUpperLayer:vector(packetBytes)  ETV
attr interpolationmode  none
attr source  receivedPacketFromUpperLayer
vector 752  CAIN.ueD2DTx[17].nic.pdcpRrc  sentPacketToLowerLayer:vector(packetBytes)  ETV
attr interpolationmode  none
attr source  sentPacketToLowerLayer
vector 753  CAIN.ueD2DTx[17].nic.mac  receivedPacketFromUpperLayer:vector(packetBytes)  ETV
attr interpolationmode  none
attr source  receivedPacketFromUpperLayer
vector 762  CAIN.ueD2DTx[17].nic.mac  CainMessageSent:vector  ETV
attr interpolationmode  none
attr title  "# of Sent CAIN message, vector"
vector 756  CAIN.ueD2DTx[17].nic.mac  sentPacketToLowerLayer:vector(packetBytes)  ETV
attr interpolationmode  none
attr source  sentPacketToLowerLayer
vector 594  CAIN.ueD2DTx[12].nic.mac  receivedPacketFromLowerLayer:vector(packetBytes)  ETV
attr interpolationmode  none
attr source  receivedPacketFromLowerLayer
vector 596  CAIN.ueD2DTx[12].nic.mac  sentPacketToLowerLayer:vector(packetBytes)  ETV
attr interpolationmode  none
attr source  sentPacketToLowerLayer
vector 210  CAIN.ueD2DTx[0].nic.mac  receivedPacketFromLowerLayer:vector(packetBytes)  ETV
attr interpolationmode  none
attr source  receivedPacketFromLowerLayer
vector 1997  CAIN.ueD2DTx[23].tcp  tcpRcvQueueBytes  ETV
vector 1984  CAIN.ueD2DTx[23].tcp  "advertised window"  ETV
vector 1983  CAIN.ueD2DTx[23].tcp  "receive window"  ETV
vector 1986  CAIN.ueD2DTx[23].tcp  "sent ack"  ETV
vector 941  CAIN.ueD2DTx[23].nic.pdcpRrc  receivedPacketFromUpperLayer:vector(packetBytes)  ETV
attr interpolationmode  none
attr source  receivedPacketFromUpperLayer
vector 944  CAIN.ueD2DTx[23].nic.pdcpRrc  sentPacketToLowerLayer:vector(packetBytes)  ETV
attr interpolationmode  none
attr source  sentPacketToLowerLayer
vector 945  CAIN.ueD2DTx[23].nic.mac  receivedPacketFromUpperLayer:vector(packetBytes)  ETV
attr interpolationmode  none
attr source  receivedPacketFromUpperLayer
vector 955  CAIN.ueD2DTx[23].nic.mac  CainHopMessageSent:vector  ETV
attr interpolationmode  none
attr title  "# of Sent CAIN hop message, vector"
vector 2021  CAIN.ueD2DTx[2].tcp  tcpRcvQueueBytes  ETV
vector 2008  CAIN.ueD2DTx[2].tcp  "advertised window"  ETV
vector 2007  CAIN.ueD2DTx[2].tcp  "receive window"  ETV
vector 2010  CAIN.ueD2DTx[2].tcp  "sent ack"  ETV
vector 269  CAIN.ueD2DTx[2].nic.pdcpRrc  receivedPacketFromUpperLayer:vector(packetBytes)  ETV
attr interpolationmode  none
attr source  receivedPacketFromUpperLayer
vector 272  CAIN.ueD2DTx[2].nic.pdcpRrc  sentPacketToLowerLayer:vector(packetBytes)  ETV
attr interpolationmode  none
attr source  sentPacketToLowerLayer
vector 273  CAIN.ueD2DTx[2].nic.mac  receivedPacketFromUpperLayer:vector(packetBytes)  ETV
attr interpolationmode  none
attr source  receivedPacketFromUpperLayer
vector 2045  CAIN.ueD2DTx[24].tcp  tcpRcvQueueBytes  ETV
vector 2032  CAIN.ueD2DTx[24].tcp  "advertised window"  ETV
vector 2031  CAIN.ueD2DTx[24].tcp  "receive window"  ETV
vector 2034  CAIN.ueD2DTx[24].tcp  "sent ack"  ETV
vector 973  CAIN.ueD2DTx[24].nic.pdcpRrc  receivedPacketFromUpperLayer:vector(packetBytes)  ETV
attr interpolationmode  none
attr source  receivedPacketFromUpperLayer
vector 976  CAIN.ueD2DTx[24].nic.pdcpRrc  sentPacketToLowerLayer:vector(packetBytes)  ETV
attr interpolationmode  none
attr source  sentPacketToLowerLayer
vector 977  CAIN.ueD2DTx[24].nic.mac  receivedPacketFromUpperLayer:vector(packetBytes)  ETV
attr interpolationmode  none
attr source  receivedPacketFromUpperLayer
vector 986  CAIN.ueD2DTx[24].nic.mac  CainMessageSent:vector  ETV
attr interpolationmode  none
attr title  "# of Sent CAIN message, vector"
vector 980  CAIN.ueD2DTx[24].nic.mac  sentPacketToLowerLayer:vector(packetBytes)  ETV
attr interpolationmode  none
attr source  sentPacketToLowerLayer
vector 306  CAIN.ueD2DTx[3].nic.mac  receivedPacketFromLowerLayer:vector(packetBytes)  ETV
attr interpolationmode  none
attr source  receivedPacketFromLowerLayer
vector 2069  CAIN.ueD2DTx[19].tcp  tcpRcvQueueBytes  ETV
vector 2056  CAIN.ueD2DTx[19].tcp  "advertised window"  ETV
vector 2055  CAIN.ueD2DTx[19].tcp  "receive window"  ETV
vector 2058  CAIN.ueD2DTx[19].tcp  "sent ack"  ETV
vector 813  CAIN.ueD2DTx[19].nic.pdcpRrc  receivedPacketFromUpperLayer:vector(packetBytes)  ETV
attr interpolationmode  none
attr source  receivedPacketFromUpperLayer
vector 816  CAIN.ueD2DTx[19].nic.pdcpRrc  sentPacketToLowerLayer:vector(packetBytes)  ETV
attr interpolationmode  none
attr source  sentPacketToLowerLayer
vector 817  CAIN.ueD2DTx[19].nic.mac  receivedPacketFromUpperLayer:vector(packetBytes)  ETV
attr interpolationmode  none
attr source  receivedPacketFromUpperLayer
vector 275  CAIN.ueD2DTx[2].nic.mac  sentPacketToUpperLayer:vector(packetBytes)  ETV
attr interpolationmode  none
attr source  sentPacketToUpperLayer
vector 820  CAIN.ueD2DTx[19].nic.mac  sentPacketToLowerLayer:vector(packetBytes)  ETV
attr interpolationmode  none
attr source  sentPacketToLowerLayer
vector 818  CAIN.ueD2DTx[19].nic.mac  receivedPacketFromLowerLayer:vector(packetBytes)  ETV
attr interpolationmode  none
attr source  receivedPacketFromLowerLayer
vector 819  CAIN.ueD2DTx[19].nic.mac  sentPacketToUpperLayer:vector(packetBytes)  ETV
attr interpolationmode  none
attr source  sentPacketToUpperLayer
vector 978  CAIN.ueD2DTx[24].nic.mac  receivedPacketFromLowerLayer:vector(packetBytes)  ETV
attr interpolationmode  none
attr source  receivedPacketFromLowerLayer
vector 307  CAIN.ueD2DTx[3].nic.mac  sentPacketToUpperLayer:vector(packetBytes)  ETV
attr interpolationmode  none
attr source  sentPacketToUpperLayer
vector 538  CAIN.ueD2DTx[10].nic.mac  CainMessageSent:vector  ETV
attr interpolationmode  none
attr title  "# of Sent CAIN message, vector"
vector 659  CAIN.ueD2DTx[14].nic.mac  sentPacketToUpperLayer:vector(packetBytes)  ETV
attr interpolationmode  none
attr source  sentPacketToUpperLayer
vector 403  CAIN.ueD2DTx[6].nic.mac  sentPacketToUpperLayer:vector(packetBytes)  ETV
attr interpolationmode  none
attr source  sentPacketToUpperLayer
vector 627  CAIN.ueD2DTx[13].nic.mac  sentPacketToUpperLayer:vector(packetBytes)  ETV
attr interpolationmode  none
attr source  sentPacketToUpperLayer
vector 563  CAIN.ueD2DTx[11].nic.mac  sentPacketToUpperLayer:vector(packetBytes)  ETV
attr interpolationmode  none
attr source  sentPacketToUpperLayer
vector 379  CAIN.ueD2DTx[5].nic.mac  CainHopMessageSent:vector  ETV
attr interpolationmode  none
attr title  "# of Sent CAIN hop message, vector"
vector 372  CAIN.ueD2DTx[5].nic.mac  sentPacketToLowerLayer:vector(packetBytes)  ETV
attr interpolationmode  none
attr source  sentPacketToLowerLayer
vector 595  CAIN.ueD2DTx[12].nic.mac  sentPacketToUpperLayer:vector(packetBytes)  ETV
attr interpolationmode  none
attr source  sentPacketToUpperLayer
vector 173  CAIN.eNodeB1.nic.phy  averageCqiUlvect:vector  ETV
attr source  averageCqiUlvect
attr title  "Average Cqi reported in UL, vector"
attr unit  cqi
vector 219  CAIN.ueD2DTx[0].nic.mac  CainHopMessageSent:vector  ETV
attr interpolationmode  none
attr title  "# of Sent CAIN hop message, vector"
vector 434  CAIN.ueD2DTx[7].nic.mac  receivedPacketFromLowerLayer:vector(packetBytes)  ETV
attr interpolationmode  none
attr source  receivedPacketFromLowerLayer
vector 730  CAIN.ueD2DTx[16].nic.mac  CainMessageSent:vector  ETV
attr interpolationmode  none
attr title  "# of Sent CAIN message, vector"
1268	56558 24 175 175 0.0000001228 0.0000001228 1 0 0 0 0
1379	56582 28 260 260 0.0000006304 0.0000006304 1 65535 65535 65535 4294836225
1380	56610 27 260 260 0.0000006304 0.0000006304 1 8940 8940 8940 79923600
1381	56637 29 260 260 0.0000006304 0.0000006304 1 0.3725 0.3725 0.3725 0.13875625
1377	56666 24 260 260 0.0000006304 0.0000006304 1 3 3 3 9
1384	56690 24 260 260 0.0000006304 0.0000006304 1 1 1 1 1
1396	56714 24 188 188 0.0000003096 0.0000003096 1 0 0 0 0
1352	56738 28 260 260 0.0000006304 0.0000006304 1 65535 65535 65535 4294836225
1353	56766 27 260 260 0.0000006304 0.0000006304 1 8940 8940 8940 79923600
1354	56793 29 260 260 0.0000006304 0.0000006304 1 0.3725 0.3725 0.3725 0.13875625
1350	56822 24 260 260 0.0000006304 0.0000006304 1 3 3 3 9
1357	56846 24 260 260 0.0000006304 0.0000006304 1 1 1 1 1
1369	56870 24 188 188 0.0000003096 0.0000003096 1 0 0 0 0
1070	56894 28 260 260 0.0000006304 0.0000006304 1 65535 65535 65535 4294836225
1071	56922 27 260 260 0.0000006304 0.0000006304 1 8940 8940 8940 79923600
1072	56949 29 260 260 0.0000006304 0.0000006304 1 0.3725 0.3725 0.3725 0.13875625
1068	56978 48 260 327 0.0000006304 0.0000008564 2 1 3 4 10
1069	57026 31 327 327 0.0000008564 0.0000008564 1 2.26e-07 2.26e-07 2.26e-07 5.1076e-14
1074	57057 4160 4006 16769 0.0570000972 0.2570027356 144 2000 2143 298296 618168984
1077	61217 46 232 246 0.000000552 0.000000596 2 1 2 3 5
1076	61263 46 232 246 0.000000552 0.000000596 2 1 2 3 5
1078	61309 48 327 333 0.0000008564 0.0000009004 2 1 2 3 5
1087	61357 13 156 156 0 0 1 0 0 0 0
1046	61370 89 4006 28787 0.0570000972 0.4570027356 3 65533 65535 196603 12884246539
1050	61459 3808 4006 28787 0.0570000972 0.4570027356 147 0 256 290 66444
1055	65267 77 4006 28787 0.0570000972 0.4570027356 3 0 0 0 0
1056	65344 77 4006 28787 0.0570000972 0.4570027356 3 0 0 0 0
1057	65421 77 4006 28787 0.0570000972 0.4570027356 3 0 0 0 0
1058	65498 77 4006 28787 0.0570000972 0.4570027356 3 0 0 0 0
1059	65575 77 4006 28787 0.0570000972 0.4570027356 3 0 0 0 0
1060	65652 77 4006 28787 0.0570000972 0.4570027356 3 0 0 0 0
1061	65729 77 4006 28787 0.0570000972 0.4570027356 3 0 0 0 0
1062	65806 80 4006 28787 0.0570000972 0.4570027356 3 16 16 48 768
1064	65886 28 188 188 0.0000003096 0.0000003096 1 65535 65535 65535 4294836225
1066	65914 5007 4009 16898 0.0570000972 0.2570027356 144 9.72e-08 2.1292e-06 0.0002774528 5.8184404736e-10
1067	70921 13 156 156 0 0 1 0 0 0 0
1298	70934 27 203 203 0.000000458 0.000000458 1 65535 65535 65535 4294836225
1299	70961 26 203 203 0.000000458 0.000000458 1 8940 8940 8940 79923600
1300	70987 28 203 203 0.000000458 0.000000458 1 0.3725 0.3725 0.3725 0.13875625
1296	71015 23 203 203 0.000000458 0.000000458 1 3 3 3 9
1303	71038 23 203 203 0.000000458 0.000000458 1 1 1 1 1
1311	71061 76 753 25944 0.0070001912 0.4070028296 3 0 0 0 0
1312	71137 76 753 25944 0.0070001912 0.4070028296 3 0 0 0 0
1313	71213 76 753 25944 0.0070001912 0.4070028296 3 0 0 0 0
1315	71289 24 175 175 0.0000001228 0.0000001228 1 0 0 0 0
1271	71313 27 203 203 0.000000458 0.000000458 1 65535 65535 65535 4294836225
1272	71340 26 203 203 0.000000458 0.000000458 1 8940 8940 8940 79923600
1273	71366 28 203 203 0.000000458 0.000000458 1 0.3725 0.3725 0.3725 0.13875625
1269	71394 23 203 203 0.000000458 0.000000458 1 3 3 3 9
1276	71417 23 203 203 0.000000458 0.000000458 1 1 1 1 1
1284	71440 76 753 25944 0.0070001912 0.4070028296 3 0 0 0 0
1285	71516 76 753 25944 0.0070001912 0.4070028296 3 0 0 0 0
1286	71592 76 753 25944 0.0070001912 0.4070028296 3 0 0 0 0
1288	71668 24 175 175 0.0000001228 0.0000001228 1 0 0 0 0
1325	71692 57 203 71388 0.000000458 1.2070006064 2 65535 65535 131070 8589672450
1326	71749 55 203 71388 0.000000458 1.2070006064 2 8940 8940 17880 159847200
1327	71804 58 203 71388 0.000000458 1.2070006064 2 0.3725 23.84 24.2125 568.48435625
1323	71862 123 203 25944 0.000000458 0.4070028296 5 1 3 7 13
1324	71985 138 280 25944 0.0000006744 0.4070028296 4 1.912e-07 0.2000022232 0.400003046 0.080001055365198
1328	72123 4137 690 13315 0.007 0.2070006064 144 2000 2143 298296 618168984
1332	76260 48 298 312 0.0000007624 0.0000008064 2 1 2 3 5
1331	76308 48 298 312 0.0000007624 0.0000008064 2 1 2 3 5
1333	76356 48 280 290 0.0000006744 0.0000007184 2 1 2 3 5
1334	76404 7872 690 25944 0.007 0.4070028296 288 0 256 33220 5601600
1335	84276 7872 690 25944 0.007 0.4070028296 288 0 256 33220 5601600
1338	92148 76 753 25944 0.0070001912 0.4070028296 3 0 0 0 0
1339	92224 76 753 25944 0.0070001912 0.4070028296 3 0 0 0 0
1340	92300 76 753 25944 0.0070001912 0.4070028296 3 0 0 0 0
1341	92376 76 753 25944 0.0070001912 0.4070028296 3 0 0 0 0
1342	92452 24 175 175 0.0000001228 0.0000001228 1 0 0 0 0
1345	92476 85 753 25944 0.0070001912 0.4070028296 3 2000 2143 6158 12652674
1347	92561 76 753 25944 0.0070001912 0.4070028296 3 0 0 0 0
1348	92637 76 753 25944 0.0070001912 0.4070028296 3 0 0 0 0
1464	92713 76 753 25944 0.0070001912 0.4070028296 3 0 0 0 0
1465	92789 6586 690 13315 0.007 0.2070006064 288 0 128 16610 1400400
1008	99375 7872 690 25944 0.007 0.4070028296 288 0 256 33220 5601600
1007	107247 7872 690 25944 0.007 0.4070028296 288 0 256 33220 5601600
1009	115119 76 753 25944 0.0070001912 0.4070028296 3 0 0 0 0
1010	115195 76 753 25944 0.0070001912 0.4070028296 3 0 0 0 0
1019	115271 88 753 25944 0.0070001912 0.4070028296 3 65533 65535 196603 12884246539
1020	115359 116 175 25944 0.0000001228 0.4070028296 4 65533 65535 262138 17179082764
1023	115475 13 148 148 0 0 1 0 0 0 0
1165	115488 24 174 174 0.0000001228 0.0000001228 1 0 0 0 0
1433	115512 28 261 261 0.0000006304 0.0000006304 1 65535 65535 65535 4294836225
1434	115540 27 261 261 0.0000006304 0.0000006304 1 8940 8940 8940 79923600
1435	115567 29 261 261 0.0000006304 0.0000006304 1 0.3725 0.3725 0.3725 0.13875625
1431	115596 24 261 261 0.0000006304 0.0000006304 1 3 3 3 9
1438	115620 24 261 261 0.0000006304 0.0000006304 1 1 1 1 1
1450	115644 24 189 189 0.0000003096 0.0000003096 1 0 0 0 0
1406	115668 28 261 261 0.0000006304 0.0000006304 1 65535 65535 65535 4294836225
1407	115696 27 261 261 0.0000006304 0.0000006304 1 8940 8940 8940 79923600
1408	115723 29 261 261 0.0000006304 0.0000006304 1 0.3725 0.3725 0.3725 0.13875625
1404	115752 24 261 261 0.0000006304 0.0000006304 1 3 3 3 9
1411	115776 24 261 261 0.0000006304 0.0000006304 1 1 1 1 1
1423	115800 24 189 189 0.0000003096 0.0000003096 1 0 0 0 0
1119	115824 28 261 261 0.0000006304 0.0000006304 1 65535 65535 65535 4294836225
1120	115852 27 261 261 0.0000006304 0.0000006304 1 8940 8940 8940 79923600
1121	115879 29 261 261 0.0000006304 0.0000006304 1 0.3725 0.3725 0.3725 0.13875625
1117	115908 48 261 326 0.0000006304 0.0000008564 2 1 3 4 10
1118	115956 31 326 326 0.0000008564 0.0000008564 1 2.26e-07 2.26e-07 2.26e-07 5.1076e-14
1123	115987 4144 741 13322 0.0070000972 0.2070027356 144 2000 2143 298296 618168984
1126	120131 46 233 247 0.000000552 0.000000596 2 1 2 3 5
1125	120177 46 233 247 0.000000552 0.000000596 2 1 2 3 5
1127	120223 48 326 332 0.0000008564 0.0000009004 2 1 2 3 5
1136	120271 13 157 157 0 0 1 0 0 0 0
1095	120284 88 741 25937 0.0070000972 0.4070027356 3 65533 65535 196603 12884246539
1099	120372 3791 741 25937 0.0070000972 0.4070027356 147 0 256 290 66444
1104	124163 76 741 25937 0.0070000972 0.4070027356 3 0 0 0 0
1105	124239 76 741 25937 0.0070000972 0.4070027356 3 0 0 0 0
1106	124315 76 741 25937 0.0070000972 0.4070027356 3 0 0 0 0
1107	124391 76 741 25937 0.0070000972 0.4070027356 3 0 0 0 0
1108	124467 76 741 25937 0.0070000972 0.4070027356 3 0 0 0 0
1109	124543 76 741 25937 0.0070000972 0.4070027356 3 0 0 0 0
1110	124619 76 741 25937 0.0070000972 0.4070027356 3 0 0 0 0
1111	124695 79 741 25937 0.0070000972 0.4070027356 3 16 16 48 768
1113	124774 28 189 189 0.0000003096 0.0000003096 1 65535 65535 65535 4294836225
1115	124802 4991 744 13451 0.0070000972 0.2070027356 144 9.72e-08 2.1292e-06 0.0002774528 5.8184404736e-10
1116	129793 13 157 157 0 0 1 0 0 0 0
1195	129806 27 202 202 0.000000458 0.000000458 1 65535 65535 65535 4294836225
1196	129833 26 202 202 0.000000458 0.000000458 1 8940 8940 8940 79923600
1197	129859 28 202 202 0.000000458 0.000000458 1 0.3725 0.3725 0.3725 0.13875625
1193	129887 23 202 202 0.000000458 0.000000458 1 3 3 3 9
1200	129910 23 202 202 0.000000458 0.000000458 1 1 1 1 1
1208	129933 77 4018 28794 0.0570001912 0.4570028296 3 0 0 0 0
1209	130010 77 4018 28794 0.0570001912 0.4570028296 3 0 0 0 0
1210	130087 77 4018 28794 0.0570001912 0.4570028296 3 0 0 0 0
1212	130164 24 174 174 0.0000001228 0.0000001228 1 0 0 0 0
1168	130188 27 202 202 0.000000458 0.000000458 1 65535 65535 65535 4294836225
1169	130215 26 202 202 0.000000458 0.000000458 1 8940 8940 8940 79923600
1170	130241 28 202 202 0.000000458 0.000000458 1 0.3725 0.3725 0.3725 0.13875625
1166	130269 23 202 202 0.000000458 0.000000458 1 3 3 3 9
1173	130292 23 202 202 0.000000458 0.000000458 1 1 1 1 1
1181	130315 77 4018 28794 0.0570001912 0.4570028296 3 0 0 0 0
1182	130392 77 4018 28794 0.0570001912 0.4570028296 3 0 0 0 0
1183	130469 77 4018 28794 0.0570001912 0.4570028296 3 0 0 0 0
1185	130546 24 174 174 0.0000001228 0.0000001228 1 0 0 0 0
1222	130570 57 202 74240 0.000000458 1.2570006064 2 65535 65535 131070 8589672450
1223	130627 55 202 74240 0.000000458 1.2570006064 2 8940 8940 17880 159847200
1224	130682 58 202 74240 0.000000458 1.2570006064 2 0.3725 23.84 24.2125 568.48435625
1220	130740 124 202 28794 0.000000458 0.4570028296 5 1 3 7 13
1221	130864 139 281 28794 0.0000006744 0.4570028296 4 1.912e-07 0.2000022232 0.400003046 0.080001055365198
1225	131003 4153 3941 16762 0.057 0.2570006064 144 2000 2143 298296 618168984
1229	135156 48 299 313 0.0000007624 0.0000008064 2 1 2 3 5
1228	135204 48 299 313 0.0000007624 0.0000008064 2 1 2 3 5
1230	135252 48 281 291 0.0000006744 0.0000007184 2 1 2 3 5
1231	135300 7889 3941 28794 0.057 0.4570028296 288 0 256 33220 5601600
1232	143189 7889 3941 28794 0.057 0.4570028296 288 0 256 33220 5601600
1235	151078 77 4018 28794 0.0570001912 0.4570028296 3 0 0 0 0
1236	151155 77 4018 28794 0.0570001912 0.4570028296 3 0 0 0 0
1237	151232 77 4018 28794 0.0570001912 0.4570028296 3 0 0 0 0
1238	151309 77 4018 28794 0.0570001912 0.4570028296 3 0 0 0 0
1239	151386 24 174 174 0.0000001228 0.0000001228 1 0 0 0 0
1242	151410 86 4018 28794 0.0570001912 0.4570028296 3 2000 2143 6158 12652674
1244	151496 77 4018 28794 0.0570001912 0.4570028296 3 0 0 0 0
1245	151573 77 4018 28794 0.0570001912 0.4570028296 3 0 0 0 0
1460	151650 77 4018 28794 0.0570001912 0.4570028296 3 0 0 0 0
1461	151727 6618 3941 16762 0.057 0.2570006064 288 0 128 16610 1400400
1030	158345 7889 3941 28794 0.057 0.4570028296 288 0 256 33220 5601600
1029	166234 7889 3941 28794 0.057 0.4570028296 288 0 256 33220 5601600
1031	174123 77 4018 28794 0.0570001912 0.4570028296 3 0 0 0 0
1032	174200 77 4018 28794 0.0570001912 0.4570028296 3 0 0 0 0
1041	174277 89 4018 28794 0.0570001912 0.4570028296 3 65533 65535 196603 12884246539
1042	174366 117 174 28794 0.0000001228 0.4570028296 4 65533 65535 262138 17179082764
1045	174483 13 153 153 0 0 1 0 0 0 0
8	174496 8 0 0 0 0 1 0 0 0 0
9	174504 8 0 0 0 0 1 0 0 0 0
24	174512 9 0 0 0 0 1 0 0 0 0
25	174521 9 0 0 0 0 1 0 0 0 0
35	174530 9 0 0 0 0 1 0 0 0 0
36	174539 9 0 0 0 0 1 0 0 0 0
56	174548 9 0 0 0 0 1 0 0 0 0
57	174557 9 0 0 0 0 1 0 0 0 0
67	174566 9 0 0 0 0 1 0 0 0 0
68	174575 9 0 0 0 0 1 0 0 0 0
78	174584 9 0 0 0 0 1 0 0 0 0
79	174593 9 0 0 0 0 1 0 0 0 0
96	174602 653070 418 718656 0.002 10 36903 0 0 0 0
98	827672 194823 1201 718647 0.014 10 11000 0 0 0 0
100	1022495 75536 2351 718647 0.035 10 3592 1 3592 6453028 15455002060
101	1098031 159857 1884 718582 0.027 9.999 7350 1 7350 27014925 132382137475
106	1257888 454003 1884 718656 0.027 10 21855 323 801 13572276 9121318268
108	1711891 67513 3256 718409 0.048 9.997 3571 3 7 21423 129717
109	1779404 145324 2302 718656 0.034 10 7342 5 14 97813 1320017
111	1924728 487246 1201 718656 0.014 10 21884 1 21884 239465670 3493724303410
112	2411974 454584 1201 718656 0.014 10 21884 163 529 9302280 4053053240
113	2866558 410816 1201 718656 0.014 10 21884 0 0 0 0
120	3277374 10 0 0 0 0 1 0 0 0 0
121	3277384 10 0 0 0 0 1 0 0 0 0
128	3277394 421 164 28789 0 0.4570027356 18 36 2592 3904 6905440
130	3277815 438 164 28789 0 0.4570027356 18 0 8.8e-08 3.088e-07 1.946112e-14
131	3278253 280 0 283 0 0.0000007124 13 0 2 10 14
132	3278533 828 0 28791 0 0.4570027796 37 0 1 18 18
133	3279361 423 166 28790 0 0.4570027356 18 43 2599 4030 6960978
134	3279784 442 171 25942 0.0000001228 0.4070028296 18 43 2599 4030 6960978
137	3280226 423 166 28790 0 0.4570027356 18 36 2592 3904 6905440
138	3280649 442 171 25942 0.0000001228 0.4070028296 18 36 2592 3904 6905440
141	3281091 3584 4011 17153 0.0570000972 0.2570027356 144 2 2 288 576
154	3284675 551762 4345 718624 0.062 10 29624 0 0 0 0
156	3836437 99361 4589 718624 0.065 10 5294 0 0 0 0
169	3935798 46539 4589 718624 0.065 10 2190 1 2190 2399145 3503551415
170	3982337 45453 4589 718624 0.065 10 2190 34 309 564220 150497982
171	4027790 41076 4589 718624 0.065 10 2190 0 0 0 0
173	4068866 17518 179787 718575 3.094 9.999 922 2 2 1844 3688
178	4086384 10 0 0 0 0 1 0 0 0 0
179	4086394 10 0 0 0 0 1 0 0 0 0
186	4086404 422 165 25939 0 0.4070027356 18 36 2592 3904 6905440
188	4086826 439 165 25939 0 0.4070027356 18 0 8.8e-08 3.088e-07 1.946112e-14
189	4087265 280 0 282 0 0.0000007124 13 0 2 10 14
190	4087545 830 0 25941 0 0.4070027796 37 0 1 18 18
191	4088375 424 167 25940 0 0.4070027356 18 43 2599 4030 6960978
192	4088799 441 170 28792 0.0000001228 0.4570028296 18 43 2599 4030 6960978
195	4089240 424 167 25940 0 0.4070027356 18 36 2592 3904 6905440
196	4089664 441 170 28792 0.0000001228 0.4570028296 18 36 2592 3904 6905440
199	4090105 3568 746 13706 0.0070000972 0.2070027356 144 2 2 288 576
205	4093673 85 6226 643377 0.088660440601 9.088660440601 3 44 44 132 5808
208	4093758 85 6226 643377 0.088660440601 9.088660440601 3 45 45 135 6075
209	4093843 85 6229 643380 0.088660440601 9.088660440601 3 45 45 135 6075
210	4093928 52552 6407 718507 0.091 9.998 2766 0 0 0 0
212	4146480 43812 6232 718526 0.089 9.999 2306 0 0 0 0
219	4190292 9552 180613 716857 3.104 9.979 460 1 460 106030 32551210
231	4199844 163 0 7416 0 0.105 10 1 2 19 37
237	4200007 85 4973 641784 0.070868452201 9.070868452201 3 44 44 132 5808
240	4200092 85 4973 641784 0.070868452201 9.070868452201 3 45 45 135 6075
241	4200177 85 4976 641787 0.070868452201 9.070868452201 3 45 45 135 6075
244	4200262 37389 4980 718253 0.071 9.996 1986 0 0 0 0
251	4237651 42240 4980 718253 0.071 9.996 1986 1 1986 1973091 2613030181
263	4279891 10 0 0 0 0 1 1 1 1 1
269	4279901 85 6704 643974 0.095104090585 9.095104090585 3 44 44 132 5808
272	4279986 85 6704 643974 0.095104090585 9.095104090585 3 45 45 135 6075
273	4280071 157 6707 644837 0.095104090585 9.105 7 14 47 278 11914
274	4280228 75319 2299 718564 0.034 9.999 4003 0 0 0 0
275	4355547 68 7098 644833 0.1 9.105 4 0 0 0 0
276	4355615 74956 2299 718564 0.034 9.999 3982 0 0 0 0
280	4430571 297 2420 6771 0.036 0.096 17 1 17 153 1785
295	4430868 10 0 0 0 0 1 1 1 1 1
301	4430878 85 1890 638101 0.027262016546 9.027262016546 3 44 44 132 5808
304	4430963 85 1890 638101 0.027262016546 9.027262016546 3 45 45 135 6075
305	4431048 17339 1893 718353 0.027262016546 9.997 911 0 45 192 6692
306	4448387 128423 6941 718636 0.098 10 6786 0 0 0 0
307	4576810 17252 175018 718349 3.032 9.997 908 0 0 0 0
308	4594062 111782 1899 718509 0.028 9.998 5884 0 0 0 0
315	4705844 102 1899 3573 0.028 0.053 6 1 6 21 91
327	4705946 163 0 7417 0 0.105 10 1 2 19 37
333	4706109 85 4142 640732 0.058969033093 9.058969033093 3 44 44 132 5808
336	4706194 85 4142 640732 0.058969033093 9.058969033093 3 45 45 135 6075
337	4706279 85 4145 640735 0.058969033093 9.058969033093 3 45 45 135 6075
340	4706364 26408 4152 718531 0.059 9.999 1390 0 0 0 0
347	4732772 29471 4152 718531 0.059 9.999 1390 1 1390 966745 896172615
359	4762243 163 0 7418 0 0.105 10 1 2 19 37
365	4762406 85 5670 642717 0.080385986073 9.080385986073 3 44 44 132 5808
368	4762491 85 5670 642717 0.080385986073 9.080385986073 3 45 45 135 6075
369	4762576 85 5673 642720 0.080385986073 9.080385986073 3 45 45 135 6075
372	4762661 26296 178705 718258 3.081 9.996 1384 0 0 0 0
379	4788957 29341 178705 718258 3.081 9.996 1384 1 1384 958420 884621660
391	4818298 163 0 7419 0 0.105 10 1 2 19 37
397	4818461 85 4514 641172 0.063074826114 9.063074826114 3 44 44 132 5808
400	4818546 85 4514 641172 0.063074826114 9.063074826114 3 45 45 135 6075
401	4818631 125 4517 641524 0.063074826114 9.068 5 45 47 229 10493
402	4818756 93 4653 641479 0.066 9.067 5 0 0 0 0
403	4818849 38 177595 641520 3.068 9.068 2 0 0 0 0
404	4818887 55 4526 641186 0.064 9.064 3 0 0 0 0
423	4818942 163 0 7420 0 0.105 10 1 2 19 37
429	4819105 85 2224 638532 0.032193433337 9.032193433337 3 44 44 132 5808
432	4819190 85 2224 638532 0.032193433337 9.032193433337 3 45 45 135 6075
433	4819275 85 2227 638535 0.032193433337 9.032193433337 3 45 45 135 6075
434	4819360 8483 180774 717012 3.105 9.98 460 0 0 0 0
436	4827843 46009 2238 718420 0.033 9.998 2454 0 0 0 0
442	4873852 42401 2238 718420 0.033 9.998 1994 1 1994 1989015 2644726945
455	4916253 10 0 0 0 0 1 1 1 1 1
461	4916263 85 2820 639328 0.042654495104 9.042654495104 3 44 44 132 5808
464	4916348 85 2820 639328 0.042654495104 9.042654495104 3 45 45 135 6075
465	4916433 85 2823 639331 0.042654495104 9.042654495104 3 45 45 135 6075
466	4916518 37390 5076 718387 0.072 9.997 1986 0 0 0 0
468	4953908 74882 2917 718422 0.043 9.998 3978 0 0 0 0
474	5028790 42361 2917 718422 0.043 9.998 1992 1 1992 1985028 2636778860
487	5071151 10 0 0 0 0 1 1 1 1 1
493	5071161 85 2828 639335 0.042742808261 9.042742808261 3 44 44 132 5808
496	5071246 85 2828 639335 0.042742808261 9.042742808261 3 45 45 135 6075
497	5071331 6258 2831 718363 0.042742808261 9.997 328 0 45 206 6806
498	5077589 20973 3094 718642 0.045 10 1114 0 0 0 0
499	5098562 6171 3156 718359 0.047 9.997 325 0 0 0 0
500	5104733 14966 2919 718424 0.043 9.998 788 0 0 0 0
519	5119699 163 0 7421 0 0.105 10 1 2 19 37
525	5119862 85 2538 638913 0.037255783586 9.037255783586 3 44 44 132 5808
528	5119947 85 2538 638913 0.037255783586 9.037255783586 3 45 45 135 6075
529	5120032 103 2541 638916 0.037255783586 9.037255783586 4 45 47 182 8284
530	5120135 100365 1847 718630 0.026 10 5381 0 0 0 0
531	5220500 17 2783 2783 0.042 0.042 1 0 0 0 0
532	5220517 126731 1847 718630 0.026 10 6768 0 0 0 0
537	5347248 85 1926 2607 0.028 0.038 5 1 5 15 55
538	5347333 29539 175422 718426 3.038 9.998 1393 1 1393 970921 901985609
551	5376872 163 0 7422 0 0.105 10 1 2 19 37
557	5377035 85 4822 641634 0.068596436554 9.068596436554 3 44 44 132 5808
560	5377120 85 4822 641634 0.068596436554 9.068596436554 3 45 45 135 6075
561	5377205 243 4825 643335 0.068596436554 9.088 11 8 45 241 7553
562	5377448 37728 4550 718561 0.064 9.999 2004 0 0 0 0
563	5415176 152 178040 643331 3.073 9.088 8 0 0 0 0
564	5415328 37576 4550 718561 0.064 9.999 1996 0 0 0 0
583	5452904 163 0 7423 0 0.105 10 1 2 19 37
589	5453067 85 6082 643240 0.086132885579 9.086132885579 3 44 44 132 5808
592	5453152 85 6082 643240 0.086132885579 9.086132885579 3 45 45 135 6075
593	5453237 145 6085 643597 0.086132885579 9.091 6 19 47 231 9545
594	5453382 26387 6404 718286 0.091 9.996 1389 0 0 0 0
595	5479769 57 179513 643593 3.091 9.091 3 0 0 0 0
596	5479826 26332 6404 718286 0.091 9.996 1386 0 0 0 0
615	5506158 163 0 7424 0 0.105 10 1 2 19 37
621	5506321 85 4720 641507 0.067512416122 9.067512416122 3 44 44 132 5808
624	5506406 85 4720 641507 0.067512416122 9.067512416122 3 45 45 135 6075
625	5506491 145 4723 641922 0.067512416122 9.072 6 19 47 231 9545
626	5506636 128 4968 641826 0.07 9.071 7 0 0 0 0
627	5506764 57 177954 641918 3.072 9.072 3 0 0 0 0
628	5506821 74 4741 641535 0.068 9.068 4 0 0 0 0
647	5506895 163 0 7425 0 0.105 10 1 2 19 37
653	5507058 85 2952 639424 0.043019576671 9.043019576671 3 44 44 132 5808
656	5507143 85 2952 639424 0.043019576671 9.043019576671 3 45 45 135 6075
657	5507228 315 2955 640696 0.043019576671 9.058 15 3 45 249 7677
658	5507543 725 1784 640646 0.025 9.057 40 0 0 0 0
659	5508268 228 176152 640692 3.048 9.058 12 0 0 0 0
660	5508496 548 1784 640330 0.025 9.054 31 0 0 0 0
666	5509044 51 2972 3655 0.044 0.054 3 1 3 6 14
679	5509095 163 0 7426 0 0.105 10 1 2 19 37
685	5509258 85 5016 641865 0.071731106779 9.071731106779 3 44 44 132 5808
688	5509343 85 5016 641865 0.071731106779 9.071731106779 3 45 45 135 6075
689	5509428 201 5019 642745 0.071731106779 9.081 9 16 45 282 10110
690	5509629 73886 5141 718650 0.073 10 3984 0 0 0 0
691	5583515 110 5372 642741 0.076 9.081 6 0 0 0 0
692	5583625 73779 5062 718650 0.072 10 3978 0 0 0 0
711	5657404 10 0 0 0 0 1 1 1 1 1
717	5657414 85 1037 636911 0.012314120021 9.012314120021 3 44 44 132 5808
720	5657499 85 1037 636911 0.012314120021 9.012314120021 3 45 45 135 6075
721	5657584 176 1040 636914 0.012314120021 9.012314120021 8 8 47 235 9023
722	5657760 111329 1234 411067 0.015 6.005 5916 0 0 0 0
723	5769089 87 1284 174137 0.017 3.017 5 0 0 0 0
724	5769176 115006 1132 718433 0.013 9.998 6109 0 0 0 0
730	5884182 4050 636961 718433 9.013 9.998 198 1 198 19701 2607099
743	5888232 10 0 0 0 0 1 1 1 1 1
749	5888242 85 6276 643452 0.089070481334 9.089070481334 3 44 44 132 5808
752	5888327 85 6276 643452 0.089070481334 9.089070481334 3 45 45 135 6075
753	5888412 85 6279 643455 0.089070481334 9.089070481334 3 45 45 135 6075
756	5888497 25518 6324 718610 0.09 10 1384 0 0 0 0
762	5914015 28563 6324 718610 0.09 10 1384 1 1384 958420 884621660
775	5942578 163 0 7427 0 0.105 10 1 2 19 37
781	5942741 85 2307 638655 0.034967919982 9.034967919982 3 44 44 132 5808
784	5942826 85 2307 638655 0.034967919982 9.034967919982 3 45 45 135 6075
785	5942911 220 2310 639920 0.034967919982 9.049 10 3 45 284 9758
786	5943131 151317 2525 718653 0.037 10 7988 0 0 0 0
787	6094448 129 2628 639916 0.039 9.049 7 0 0 0 0
788	6094577 151185 2331 718653 0.035 10 7981 0 0 0 0
807	6245762 10 0 0 0 0 1 1 1 1 1
813	6245772 85 7069 644362 0.099035166858 9.099035166858 3 44 44 132 5808
816	6245857 85 7069 644362 0.099035166858 9.099035166858 3 45 45 135 6075
817	6245942 143 7072 644723 0.099035166858 9.104 6 45 47 276 12702
818	6246085 110 7241 644675 0.102 9.103 6 0 0 0 0
819	6246195 55 7332 644719 0.104 9.104 3 0 0 0 0
820	6246250 49 7119 644394 0.1 9.1 3 0 0 0 0
839	6246299 10 0 0 0 0 1 1 1 1 1
845	6246309 85 1931 638160 0.028303043828 9.028303043828 3 44 44 132 5808
848	6246394 85 1931 638160 0.028303043828 9.028303043828 3 45 45 135 6075
849	6246479 85 1934 638163 0.028303043828 9.028303043828 3 45 45 135 6075
850	6246564 16 4240 4240 0.06 0.06 1 0 0 0 0
852	6246580 37559 1957 718548 0.029 9.999 1996 0 0 0 0
859	6284139 42421 1957 718548 0.029 9.999 1995 1 1995 1991010 2648706970
871	6326560 10 0 0 0 0 1 1 1 1 1
877	6326570 85 1618 637745 0.023785309079 9.023785309079 3 44 44 132 5808
880	6326655 85 1618 637745 0.023785309079 9.023785309079 3 45 45 135 6075
881	6326740 85 1621 637748 0.023785309079 9.023785309079 3 45 45 135 6075
884	6326825 26643 1670 718550 0.024 9.999 1403 0 0 0 0
891	6353468 29745 1670 718550 0.024 9.999 1403 1 1403 984906 921543714
903	6383213 163 0 7428 0 0.105 10 1 2 19 37
909	6383376 85 3040 639561 0.044464713358 9.044464713358 3 44 44 132 5808
912	6383461 85 3040 639561 0.044464713358 9.044464713358 3 45 45 135 6075
913	6383546 85 3043 639564 0.044464713358 9.044464713358 3 45 45 135 6075
916	6383631 25719 3069 718616 0.045 10 1395 0 0 0 0
923	6409350 28797 3069 718616 0.045 10 1395 1 1395 973710 905874870
935	6438147 163 0 7429 0 0.105 10 1 2 19 37
941	6438310 85 6656 643899 0.094999797184 9.094999797184 3 44 44 132 5808
944	6438395 85 6656 643899 0.094999797184 9.094999797184 3 45 45 135 6075
945	6438480 85 6659 643902 0.094999797184 9.094999797184 3 45 45 135 6075
946	6438565 115 2028 4243 0.03 0.06 7 0 0 0 0
948	6438680 25616 2028 718618 0.03 10 1390 0 0 0 0
955	6464296 28543 6685 718618 0.095 10 1383 1 1383 957036 882706204
967	6492839 163 0 7430 0 0.105 10 1 2 19 37
973	6493002 85 6778 644076 0.096481279186 9.096481279186 3 44 44 132 5808
976	6493087 85 6778 644076 0.096481279186 9.096481279186 3 45 45 135 6075
977	6493172 85 6781 644079 0.096481279186 9.096481279186 3 45 45 135 6075
978	6493257 66925 174631 718633 3.025 10 3587 0 0 0 0
980	6560182 93181 6833 718633 0.097 10 4969 0 0 0 0
986	6653363 29295 6833 718378 0.097 9.997 1382 1 1382 955653 880793515
999	6682658 163 0 7431 0 0.105 10 1 2 19 37
1479	6682821 94 1034 636908 0.012314120021 9.012314120021 3 7504 7504 22512 168930048
1480	6682915 94 1034 636908 0.012314120021 9.012314120021 3 7504 7504 22512 168930048
1482	6683009 85 1034 636908 0.012314120021 9.012314120021 3 0 0 0 0
1493	6683094 85 1034 636908 0.012314120021 9.012314120021 3 0 0 0 0
1503	6683179 94 1615 637742 0.023785309079 9.023785309079 3 7504 7504 22512 168930048
1504	6683273 94 1615 637742 0.023785309079 9.023785309079 3 7504 7504 22512 168930048
1506	6683367 85 1615 637742 0.023785309079 9.023785309079 3 0 0 0 0
1517	6683452 85 1615 637742 0.023785309079 9.023785309079 3 0 0 0 0
1527	6683537 94 1887 638098 0.027262016546 9.027262016546 3 7504 7504 22512 168930048
1528	6683631 94 1887 638098 0.027262016546 9.027262016546 3 7504 7504 22512 168930048
1530	6683725 85 1887 638098 0.027262016546 9.027262016546 3 0 0 0 0
1541	6683810 85 1887 638098 0.027262016546 9.027262016546 3 0 0 0 0
1551	6683895 94 1928 638157 0.028303043828 9.028303043828 3 7504 7504 22512 168930048
1552	6683989 94 1928 638157 0.028303043828 9.028303043828 3 7504 7504 22512 168930048
1554	6684083 85 1928 638157 0.028303043828 9.028303043828 3 0 0 0 0
1565	6684168 85 1928 638157 0.028303043828 9.028303043828 3 0 0 0 0
1575	6684253 94 2221 638529 0.032193433337 9.032193433337 3 7504 7504 22512 168930048
1576	6684347 94 2221 638529 0.032193433337 9.032193433337 3 7504 7504 22512 168930048
1578	6684441 85 2221 638529 0.032193433337 9.032193433337 3 0 0 0 0
1589	6684526 85 2221 638529 0.032193433337 9.032193433337 3 0 0 0 0
1599	6684611 94 2304 638652 0.034967919982 9.034967919982 3 7504 7504 22512 168930048
1600	6684705 94 2304 638652 0.034967919982 9.034967919982 3 7504 7504 22512 168930048
1602	6684799 85 2304 638652 0.034967919982 9.034967919982 3 0 0 0 0
1613	6684884 85 2304 638652 0.034967919982 9.034967919982 3 0 0 0 0
1623	6684969 94 2535 638910 0.037255783586 9.037255783586 3 7504 7504 22512 168930048
1624	6685063 94 2535 638910 0.037255783586 9.037255783586 3 7504 7504 22512 168930048
1626	6685157 85 2535 638910 0.037255783586 9.037255783586 3 0 0 0 0
1637	6685242 85 2535 638910 0.037255783586 9.037255783586 3 0 0 0 0
1647	6685327 94 2817 639325 0.042654495104 9.042654495104 3 7504 7504 22512 168930048
1648	6685421 94 2817 639325 0.042654495104 9.042654495104 3 7504 7504 22512 168930048
1650	6685515 85 2817 639325 0.042654495104 9.042654495104 3 0 0 0 0
1661	6685600 85 2817 639325 0.042654495104 9.042654495104 3 0 0 0 0
1671	6685685 94 2825 639332 0.042742808261 9.042742808261 3 7504 7504 22512 168930048
1672	6685779 94 2825 639332 0.042742808261 9.042742808261 3 7504 7504 22512 168930048
1674	6685873 85 2825 639332 0.042742808261 9.042742808261 3 0 0 0 0
1685	6685958 85 2825 639332 0.042742808261 9.042742808261 3 0 0 0 0
1695	6686043 94 2949 639421 0.043019576671 9.043019576671 3 7504 7504 22512 168930048
1696	6686137 94 2949 639421 0.043019576671 9.043019576671 3 7504 7504 22512 168930048
1698	6686231 85 2949 639421 0.043019576671 9.043019576671 3 0 0 0 0
1709	6686316 85 2949 639421 0.043019576671 9.043019576671 3 0 0 0 0
1719	6686401 94 3037 639558 0.044464713358 9.044464713358 3 7504 7504 22512 168930048
1720	6686495 94 3037 639558 0.044464713358 9.044464713358 3 7504 7504 22512 168930048
1722	6686589 85 3037 639558 0.044464713358 9.044464713358 3 0 0 0 0
1733	6686674 85 3037 639558 0.044464713358 9.044464713358 3 0 0 0 0
1743	6686759 94 4139 640729 0.058969033093 9.058969033093 3 7504 7504 22512 168930048
1744	6686853 94 4139 640729 0.058969033093 9.058969033093 3 7504 7504 22512 168930048
1746	6686947 85 4139 640729 0.058969033093 9.058969033093 3 0 0 0 0
1757	6687032 85 4139 640729 0.058969033093 9.058969033093 3 0 0 0 0
1767	6687117 94 4511 641169 0.063074826114 9.063074826114 3 7504 7504 22512 168930048
1768	6687211 94 4511 641169 0.063074826114 9.063074826114 3 7504 7504 22512 168930048
1770	6687305 85 4511 641169 0.063074826114 9.063074826114 3 0 0 0 0
1781	6687390 85 4511 641169 0.063074826114 9.063074826114 3 0 0 0 0
1791	6687475 94 4717 641504 0.067512416122 9.067512416122 3 7504 7504 22512 168930048
1792	6687569 94 4717 641504 0.067512416122 9.067512416122 3 7504 7504 22512 168930048
1794	6687663 85 4717 641504 0.067512416122 9.067512416122 3 0 0 0 0
1805	6687748 85 4717 641504 0.067512416122 9.067512416122 3 0 0 0 0
1815	6687833 94 4819 641631 0.068596436554 9.068596436554 3 7504 7504 22512 168930048
1816	6687927 94 4819 641631 0.068596436554 9.068596436554 3 7504 7504 22512 168930048
1818	6688021 85 4819 641631 0.068596436554 9.068596436554 3 0 0 0 0
1829	6688106 85 4819 641631 0.068596436554 9.068596436554 3 0 0 0 0
1839	6688191 94 4970 641781 0.070868452201 9.070868452201 3 7504 7504 22512 168930048
1840	6688285 94 4970 641781 0.070868452201 9.070868452201 3 7504 7504 22512 168930048
1842	6688379 85 4970 641781 0.070868452201 9.070868452201 3 0 0 0 0
1853	6688464 85 4970 641781 0.070868452201 9.070868452201 3 0 0 0 0
1863	6688549 94 5013 641862 0.071731106779 9.071731106779 3 7504 7504 22512 168930048
1864	6688643 94 5013 641862 0.071731106779 9.071731106779 3 7504 7504 22512 168930048
1866	6688737 85 5013 641862 0.071731106779 9.071731106779 3 0 0 0 0
1877	6688822 85 5013 641862 0.071731106779 9.071731106779 3 0 0 0 0
1887	6688907 94 5667 642714 0.080385986073 9.080385986073 3 7504 7504 22512 168930048
1888	6689001 94 5667 642714 0.080385986073 9.080385986073 3 7504 7504 22512 168930048
1890	6689095 85 5667 642714 0.080385986073 9.080385986073 3 0 0 0 0
1901	6689180 85 5667 642714 0.080385986073 9.080385986073 3 0 0 0 0
1911	6689265 94 6079 643237 0.086132885579 9.086132885579 3 7504 7504 22512 168930048
1912	6689359 94 6079 643237 0.086132885579 9.086132885579 3 7504 7504 22512 168930048
1914	6689453 85 6079 643237 0.086132885579 9.086132885579 3 0 0 0 0
1925	6689538 85 6079 643237 0.086132885579 9.086132885579 3 0 0 0 0
1935	6689623 94 6223 643374 0.088660440601 9.088660440601 3 7504 7504 22512 168930048
1936	6689717 94 6223 643374 0.088660440601 9.088660440601 3 7504 7504 22512 168930048
1938	6689811 85 6223 643374 0.088660440601 9.088660440601 3 0 0 0 0
1949	6689896 85 6223 643374 0.088660440601 9.088660440601 3 0 0 0 0
1959	6689981 94 6273 643449 0.089070481334 9.089070481334 3 7504 7504 22512 168930048
1960	6690075 94 6273 643449 0.089070481334 9.089070481334 3 7504 7504 22512 168930048
1962	6690169 85 6273 643449 0.089070481334 9.089070481334 3 0 0 0 0
1973	6690254 85 6273 643449 0.089070481334 9.089070481334 3 0 0 0 0
1983	6690339 94 6653 643896 0.094999797184 9.094999797184 3 7504 7504 22512 168930048
1984	6690433 94 6653 643896 0.094999797184 9.094999797184 3 7504 7504 22512 168930048
1986	6690527 85 6653 643896 0.094999797184 9.094999797184 3 0 0 0 0
1997	6690612 85 6653 643896 0.094999797184 9.094999797184 3 0 0 0 0
2007	6690697 94 6701 643971 0.095104090585 9.095104090585 3 7504 7504 22512 168930048
2008	6690791 94 6701 643971 0.095104090585 9.095104090585 3 7504 7504 22512 168930048
2010	6690885 85 6701 643971 0.095104090585 9.095104090585 3 0 0 0 0
2021	6690970 85 6701 643971 0.095104090585 9.095104090585 3 0 0 0 0
2031	6691055 94 6775 644073 0.096481279186 9.096481279186 3 7504 7504 22512 168930048
2032	6691149 94 6775 644073 0.096481279186 9.096481279186 3 7504 7504 22512 168930048
2034	6691243 85 6775 644073 0.096481279186 9.096481279186 3 0 0 0 0
2045	6691328 85 6775 644073 0.096481279186 9.096481279186 3 0 0 0 0
2055	6691413 94 7066 644359 0.099035166858 9.099035166858 3 7504 7504 22512 168930048
2056	6691507 94 7066 644359 0.099035166858 9.099035166858 3 7504 7504 22512 168930048
2058	6691601 85 7066 644359 0.099035166858 9.099035166858 3 0 0 0 0
2069	6691686 85 7066 644359 0.099035166858 9.099035166858 3 0 0 0 0
