version 2
run CAIN-61-20200508-16:17:00-12114
attr configname CAIN
attr datetime 20200508-16:17:00
attr dist 200
attr experiment CAIN
attr extAllocType "\"FULL_ALLOC\""
attr inifile omnetpp.ini
attr iterationvars "$numUe=20, $pwr=-50, $dist=200, $mob=\"./movements/RWPRPGM-0.0.movements\", $extAllocType=\"FULL_ALLOC\""
attr iterationvars2 "$numUe=20, $pwr=-50, $dist=200, $mob=\"./movements/RWPRPGM-0.0.movements\", $extAllocType=\"FULL_ALLOC\", $repetition=1"
attr measurement "$numUe=20, $pwr=-50, $dist=200, $mob=\"./movements/RWPRPGM-0.0.movements\", $extAllocType=\"FULL_ALLOC\""
attr mob "\"./movements/RWPRPGM-0.0.movements\""
attr network lte.simulations.networks.CAIN
attr numUe 20
attr processid 12114
attr pwr -50
attr repetition 1
attr replication #1
attr resultdir results
attr runnumber 61
attr seedset 1
param **.**.amcMode "\"AUTO\""
param **.amcMode "\"D2D\""
param **.cainNetwork true
param **.channelControl.alpha 1.0
param **.channelControl.carrierFrequency 2100e+6Hz
param **.channelControl.pMax 10W
param **.d2dCqi 7
param **.deployer.numRbDl 50
param **.deployer.numRbUl 50
param **.distThresh ${dist=200}
param **.fbDelay 1
param **.feedbackComputation "xmldoc(\"config_channel.xml\")"
param **.mobility.constraintAreaMaxX 1000m
param **.mobility.constraintAreaMaxY 1000m
param **.mobility.constraintAreaMaxZ 0m
param **.mobility.constraintAreaMinX 0m
param **.mobility.constraintAreaMinY 0m
param **.mobility.constraintAreaMinZ 0m
param **.nic.phy.channelModel "xmldoc(\"config_channel.xml\")"
param **.numBands 50
param **.pwrThresh "${pwr= -50}"
param **.qtdThresh 3
param **.rbAllocationType "\"localized\""
param **.routingRecorder.enabled false
param **.tcpApp[*].tClose -1s
param **.ueD2DTx[*].mobility.changeAngleBy "normal(0deg, 30deg)"
param **.ueD2DTx[*].mobility.changeInterval "normal(5s, 0.1s)"
param **.ueD2DTx[*].mobility.nodeId -1
param **.ueD2DTx[*].mobility.speed "normal(2mps, 0.01mps)"
param **.ueD2DTx[*].mobility.traceFile "${mob=\"./movements/RWP-0.0.movements\",\"./movements/RWP-0.5.movements\",\"./movements/RPGM-0.0.movements\",\"./movements/RPGM-0.5.movements\",\"./movements/RWPRPGM-0.0.movements\",\"./movements/RWPRPGM-0.5.movements\"}"
param **.ueD2DTx[*].mobilityType "\"BonnMotionMobility\""
param **.usePreconfiguredTxParams false
param *.eNodeB*.numX2Apps 1
param *.eNodeB*.x2App[*].server.localPort "5000 + ancestorIndex(1)"
param *.eNodeB.d2dCapable false
param *.eNodeB.mobility.initFromDisplayString false
param *.eNodeB.mobility.initialX 300m
param *.eNodeB.mobility.initialY 300m
param *.eNodeB.nic.phy.enableD2DCqiReporting true
param *.eNodeB.txPower 19952.62315mw
param *.eNodeB.x2App[0].client.connectAddress "\"eNodeB1%x2ppp0\""
param *.eNodeB1.d2dCapable true
param *.eNodeB1.mobility.initFromDisplayString false
param *.eNodeB1.mobility.initialX 700m
param *.eNodeB1.mobility.initialY 300m
param *.eNodeB1.nic.phy.enableD2DCqiReporting true
param *.eNodeB1.txPower 19952.62315mw
param *.eNodeB1.x2App[0].client.connectAddress "\"eNodeB%x2ppp0\""
param *.extCell[*].bandAllocationType "${extAllocType=\"FULL_ALLOC\",\"RANDOM_ALLOC\",\"CONTIGUOUS_ALLOC\"}"
param *.extCell[*].bandUtilization 0.5
param *.extCell[*].txDirection "\"ANISOTROPIC\""
param *.extCell[*].txPower 20
param *.extCell[0].position_x 100m
param *.extCell[0].position_y 600m
param *.extCell[0].txAngle 315
param *.extCell[1].position_x 600m
param *.extCell[1].position_y 600m
param *.extCell[1].txAngle 225
param *.numExtCells 2
param *.numUeCell 0
param *.numUeD2DRx 1
param *.numUeD2DTx 1
param *.ue*.macCellId 1
param *.ue*.masterId 1
param *.ue*.mobility.initFromDisplayString false
param *.ue*[0].macCellId 1
param *.ue*[0].masterId 1
param *.ue*[0].mobility.initFromDisplayString false
param *.ueD2D*.numTcpApps 1
param *.ueD2D*[*].d2dCapable true
param *.ueD2D*[0].d2dCapable false
param *.ueD2D*[0].numTcpApps 1
param *.ueD2DRx[0].mobility.initialX 310m
param *.ueD2DRx[0].mobility.initialY 350m
param *.ueD2DRx[0].tcpApp[*].localPort 1000
param *.ueD2DRx[0].tcpApp[*].typename "\"TCPSinkApp\""
param *.ueD2DTx*.nic.d2dPeerAddresses "\"ueD2DTx[1]\""
param *.ueD2DTx*.tcpApp[*].connectAddress "\"ueD2DTx[0]\""
param *.ueD2DTx*.tcpApp[*].localAddress "\"ueD2DTx\""
param *.ueD2DTx*.tcpApp[*].localPort 1000
param *.ueD2DTx*.tcpApp[*].sendBytes 1GiB
param *.ueD2DTx*.tcpApp[*].typename "\"TCPSessionApp\""
param *.ueD2DTx*.tcpApp[0].active true
param *.ueD2DTx*.tcpApp[0].connectPort 1000
param *.ueD2DTx*.tcpApp[0].tOpen uniform(0.010s,0.1s)
param *.ueD2DTx*.tcpApp[0].tSend uniform(0.15s,0.5s)
param *.ueD2DTx[0].mobility.initialX 290m
param *.ueD2DTx[0].mobility.initialY 350m
param *.ueD2DTx[0].tcpApp[*].localPort 1000
param *.ueD2DTx[0].tcpApp[*].sendBytes 1GiB
param *.ueD2DTx[0].tcpApp[*].typename "\"TCPSessionApp\""
param *.ueD2DTx[0].tcpApp[0].active true
param *.ueD2DTx[0].tcpApp[0].connectAddress "\"ueD2DRx[0]\""
param *.ueD2DTx[0].tcpApp[0].connectPort 1000
param *.ueD2DTx[0].tcpApp[0].localAddress "\"ueD2DTx[0]\""
param *.ueD2DTx[0].tcpApp[0].tOpen uniform(0.010s,0.1s)
param *.ueD2DTx[0].tcpApp[0].tSend uniform(0.15s,0.5s)
param *.ueD2DTx[1].mobility.initialX 690m
param *.ueD2DTx[1].mobility.initialY 250m

scalar . 	dist 	200
scalar . 	numUe 	20
scalar . 	pwr 	-50
scalar CAIN.eNodeB.x2App[0].client 	ums 	1452
scalar CAIN.eNodeB1.x2App[0].client 	ums 	1452
scalar CAIN.server.networkLayer.arp 	failedARPResolution:count 	0
attr title  "ARP failed resolutions, count"
scalar CAIN.server.networkLayer.arp 	completedARPResolution:count 	0
attr title  "ARP completed resolutions, count"
scalar CAIN.server.networkLayer.arp 	initiatedARPResolution:count 	0
attr title  "ARP initiated resolutions, count"
scalar CAIN.server.networkLayer.arp 	sentReply:count 	0
attr title  "ARP replies sent, count"
scalar CAIN.server.networkLayer.arp 	sentReq:count 	0
attr title  "ARP request sent, count"
scalar CAIN.server.lo0.lo 	droppedPkBitError:count 	0
attr interpolationmode  none
attr source  dropPkBitError
attr title  "packets dropped/bit error, count"
scalar CAIN.server.lo0.lo 	droppedPkBitError:sum(packetBytes) 	0
attr interpolationmode  none
attr source  dropPkBitError
attr title  "packets dropped/bit error, sum(packetBytes)"
scalar CAIN.server.lo0.lo 	rcvdPkFromHL:count 	0
attr interpolationmode  none
attr source  packetReceivedFromUpper
attr title  "packets received from higher layer, count"
scalar CAIN.server.lo0.lo 	rcvdPkFromHL:sum(packetBytes) 	0
attr interpolationmode  none
attr source  packetReceivedFromUpper
attr title  "packets received from higher layer, sum(packetBytes)"
scalar CAIN.server.lo0.lo 	passedUpPk:count 	0
attr interpolationmode  none
attr source  packetSentToUpper
attr title  "packets passed to higher layer, count"
scalar CAIN.server.lo0.lo 	passedUpPk:sum(packetBytes) 	0
attr interpolationmode  none
attr source  packetSentToUpper
attr title  "packets passed to higher layer, sum(packetBytes)"
statistic CAIN.server.ppp[0].queue 	queueingTime:histogram
field count 0
field mean -nan
field stddev -nan
field sum 0
field sqrsum 0
field min -nan
field max -nan
attr interpolationmode  none
attr title  "queueing time, histogram"
bin	-INF	0
bin	-0.5	0
bin	-0.46666666666667	0
bin	-0.43333333333333	0
bin	-0.4	0
bin	-0.36666666666667	0
bin	-0.33333333333333	0
bin	-0.3	0
bin	-0.26666666666667	0
bin	-0.23333333333333	0
bin	-0.2	0
bin	-0.16666666666667	0
bin	-0.13333333333333	0
bin	-0.1	0
bin	-0.066666666666667	0
bin	-0.033333333333333	0
bin	0	0
bin	0.033333333333333	0
bin	0.066666666666667	0
bin	0.1	0
bin	0.13333333333333	0
bin	0.16666666666667	0
bin	0.2	0
bin	0.23333333333333	0
bin	0.26666666666667	0
bin	0.3	0
bin	0.33333333333333	0
bin	0.36666666666667	0
bin	0.4	0
bin	0.43333333333333	0
bin	0.46666666666667	0
bin	0.5	0
scalar CAIN.server.ppp[0].queue 	dropPk:count 	0
attr interpolationmode  none
attr source  dropPkByQueue
attr title  "dropped packets, count"
scalar CAIN.server.ppp[0].queue 	dropPk:sum(packetBytes) 	0
attr interpolationmode  none
attr source  dropPkByQueue
attr title  "dropped packets, sum(packetBytes)"
scalar CAIN.server.ppp[0].queue 	queueLength:max 	0
attr interpolationmode  sample-hold
attr title  "queue length, max"
scalar CAIN.server.ppp[0].queue 	queueLength:timeavg 	0
attr interpolationmode  sample-hold
attr title  "queue length, timeavg"
scalar CAIN.server.ppp[0].queue 	rcvdPk:count 	0
attr interpolationmode  none
attr title  "received packets, count"
scalar CAIN.server.ppp[0].queue 	rcvdPk:sum(packetBytes) 	0
attr interpolationmode  none
attr title  "received packets, sum(packetBytes)"
scalar CAIN.server.ppp[0].ppp 	txState:timeavg 	0
attr interpolationmode  sample-hold
attr title  "tx state, timeavg"
scalar CAIN.server.ppp[0].ppp 	droppedPkIfaceDown:count 	0
attr interpolationmode  none
attr source  dropPkIfaceDown
attr title  "packets dropped/interface down, count"
scalar CAIN.server.ppp[0].ppp 	droppedPkIfaceDown:sum(packetBytes) 	0
attr interpolationmode  none
attr source  dropPkIfaceDown
attr title  "packets dropped/interface down, sum(packetBytes)"
scalar CAIN.server.ppp[0].ppp 	droppedPkBitError:count 	0
attr interpolationmode  none
attr source  dropPkBitError
attr title  "packets dropped/bit error, count"
scalar CAIN.server.ppp[0].ppp 	droppedPkBitError:sum(packetBytes) 	0
attr interpolationmode  none
attr source  dropPkBitError
attr title  "packets dropped/bit error, sum(packetBytes)"
scalar CAIN.server.ppp[0].ppp 	rxPkOk:count 	0
attr interpolationmode  none
attr source  rxPkOk
attr title  "packets received OK, count"
scalar CAIN.server.ppp[0].ppp 	rxPkOk:sum(packetBytes) 	0
attr interpolationmode  none
attr source  rxPkOk
attr title  "packets received OK, sum(packetBytes)"
scalar CAIN.server.ppp[0].ppp 	txPk:count 	0
attr interpolationmode  none
attr source  packetSentToLower
attr title  "packets transmitted, count"
scalar CAIN.server.ppp[0].ppp 	txPk:sum(packetBytes) 	0
attr interpolationmode  none
attr source  packetSentToLower
attr title  "packets transmitted, sum(packetBytes)"
scalar CAIN.server.ppp[0].ppp 	rcvdPkFromHL:count 	0
attr interpolationmode  none
attr source  packetReceivedFromUpper
attr title  "packets received from higher layer, count"
scalar CAIN.server.ppp[0].ppp 	rcvdPkFromHL:sum(packetBytes) 	0
attr interpolationmode  none
attr source  packetReceivedFromUpper
attr title  "packets received from higher layer, sum(packetBytes)"
scalar CAIN.server.ppp[0].ppp 	passedUpPk:count 	0
attr interpolationmode  none
attr source  packetSentToUpper
attr title  "packets passed to higher layer, count"
scalar CAIN.server.ppp[0].ppp 	passedUpPk:sum(packetBytes) 	0
attr interpolationmode  none
attr source  packetSentToUpper
attr title  "packets passed to higher layer, sum(packetBytes)"
scalar CAIN.router.networkLayer.arp 	failedARPResolution:count 	0
attr title  "ARP failed resolutions, count"
scalar CAIN.router.networkLayer.arp 	completedARPResolution:count 	0
attr title  "ARP completed resolutions, count"
scalar CAIN.router.networkLayer.arp 	initiatedARPResolution:count 	0
attr title  "ARP initiated resolutions, count"
scalar CAIN.router.networkLayer.arp 	sentReply:count 	0
attr title  "ARP replies sent, count"
scalar CAIN.router.networkLayer.arp 	sentReq:count 	0
attr title  "ARP request sent, count"
scalar CAIN.router.lo0.lo 	droppedPkBitError:count 	0
attr interpolationmode  none
attr source  dropPkBitError
attr title  "packets dropped/bit error, count"
scalar CAIN.router.lo0.lo 	droppedPkBitError:sum(packetBytes) 	0
attr interpolationmode  none
attr source  dropPkBitError
attr title  "packets dropped/bit error, sum(packetBytes)"
scalar CAIN.router.lo0.lo 	rcvdPkFromHL:count 	0
attr interpolationmode  none
attr source  packetReceivedFromUpper
attr title  "packets received from higher layer, count"
scalar CAIN.router.lo0.lo 	rcvdPkFromHL:sum(packetBytes) 	0
attr interpolationmode  none
attr source  packetReceivedFromUpper
attr title  "packets received from higher layer, sum(packetBytes)"
scalar CAIN.router.lo0.lo 	passedUpPk:count 	0
attr interpolationmode  none
attr source  packetSentToUpper
attr title  "packets passed to higher layer, count"
scalar CAIN.router.lo0.lo 	passedUpPk:sum(packetBytes) 	0
attr interpolationmode  none
attr source  packetSentToUpper
attr title  "packets passed to higher layer, sum(packetBytes)"
statistic CAIN.router.ppp[0].queue 	queueingTime:histogram
field count 0
field mean -nan
field stddev -nan
field sum 0
field sqrsum 0
field min -nan
field max -nan
attr interpolationmode  none
attr title  "queueing time, histogram"
bin	-INF	0
bin	-0.5	0
bin	-0.46666666666667	0
bin	-0.43333333333333	0
bin	-0.4	0
bin	-0.36666666666667	0
bin	-0.33333333333333	0
bin	-0.3	0
bin	-0.26666666666667	0
bin	-0.23333333333333	0
bin	-0.2	0
bin	-0.16666666666667	0
bin	-0.13333333333333	0
bin	-0.1	0
bin	-0.066666666666667	0
bin	-0.033333333333333	0
bin	0	0
bin	0.033333333333333	0
bin	0.066666666666667	0
bin	0.1	0
bin	0.13333333333333	0
bin	0.16666666666667	0
bin	0.2	0
bin	0.23333333333333	0
bin	0.26666666666667	0
bin	0.3	0
bin	0.33333333333333	0
bin	0.36666666666667	0
bin	0.4	0
bin	0.43333333333333	0
bin	0.46666666666667	0
bin	0.5	0
scalar CAIN.router.ppp[0].queue 	dropPk:count 	0
attr interpolationmode  none
attr source  dropPkByQueue
attr title  "dropped packets, count"
scalar CAIN.router.ppp[0].queue 	dropPk:sum(packetBytes) 	0
attr interpolationmode  none
attr source  dropPkByQueue
attr title  "dropped packets, sum(packetBytes)"
scalar CAIN.router.ppp[0].queue 	queueLength:max 	0
attr interpolationmode  sample-hold
attr title  "queue length, max"
scalar CAIN.router.ppp[0].queue 	queueLength:timeavg 	0
attr interpolationmode  sample-hold
attr title  "queue length, timeavg"
scalar CAIN.router.ppp[0].queue 	rcvdPk:count 	0
attr interpolationmode  none
attr title  "received packets, count"
scalar CAIN.router.ppp[0].queue 	rcvdPk:sum(packetBytes) 	0
attr interpolationmode  none
attr title  "received packets, sum(packetBytes)"
scalar CAIN.router.ppp[0].ppp 	txState:timeavg 	0
attr interpolationmode  sample-hold
attr title  "tx state, timeavg"
scalar CAIN.router.ppp[0].ppp 	droppedPkIfaceDown:count 	0
attr interpolationmode  none
attr source  dropPkIfaceDown
attr title  "packets dropped/interface down, count"
scalar CAIN.router.ppp[0].ppp 	droppedPkIfaceDown:sum(packetBytes) 	0
attr interpolationmode  none
attr source  dropPkIfaceDown
attr title  "packets dropped/interface down, sum(packetBytes)"
scalar CAIN.router.ppp[0].ppp 	droppedPkBitError:count 	0
attr interpolationmode  none
attr source  dropPkBitError
attr title  "packets dropped/bit error, count"
scalar CAIN.router.ppp[0].ppp 	droppedPkBitError:sum(packetBytes) 	0
attr interpolationmode  none
attr source  dropPkBitError
attr title  "packets dropped/bit error, sum(packetBytes)"
scalar CAIN.router.ppp[0].ppp 	rxPkOk:count 	0
attr interpolationmode  none
attr source  rxPkOk
attr title  "packets received OK, count"
scalar CAIN.router.ppp[0].ppp 	rxPkOk:sum(packetBytes) 	0
attr interpolationmode  none
attr source  rxPkOk
attr title  "packets received OK, sum(packetBytes)"
scalar CAIN.router.ppp[0].ppp 	txPk:count 	0
attr interpolationmode  none
attr source  packetSentToLower
attr title  "packets transmitted, count"
scalar CAIN.router.ppp[0].ppp 	txPk:sum(packetBytes) 	0
attr interpolationmode  none
attr source  packetSentToLower
attr title  "packets transmitted, sum(packetBytes)"
scalar CAIN.router.ppp[0].ppp 	rcvdPkFromHL:count 	0
attr interpolationmode  none
attr source  packetReceivedFromUpper
attr title  "packets received from higher layer, count"
scalar CAIN.router.ppp[0].ppp 	rcvdPkFromHL:sum(packetBytes) 	0
attr interpolationmode  none
attr source  packetReceivedFromUpper
attr title  "packets received from higher layer, sum(packetBytes)"
scalar CAIN.router.ppp[0].ppp 	passedUpPk:count 	0
attr interpolationmode  none
attr source  packetSentToUpper
attr title  "packets passed to higher layer, count"
scalar CAIN.router.ppp[0].ppp 	passedUpPk:sum(packetBytes) 	0
attr interpolationmode  none
attr source  packetSentToUpper
attr title  "packets passed to higher layer, sum(packetBytes)"
statistic CAIN.router.ppp[1].queue 	queueingTime:histogram
field count 0
field mean -nan
field stddev -nan
field sum 0
field sqrsum 0
field min -nan
field max -nan
attr interpolationmode  none
attr title  "queueing time, histogram"
bin	-INF	0
bin	-0.5	0
bin	-0.46666666666667	0
bin	-0.43333333333333	0
bin	-0.4	0
bin	-0.36666666666667	0
bin	-0.33333333333333	0
bin	-0.3	0
bin	-0.26666666666667	0
bin	-0.23333333333333	0
bin	-0.2	0
bin	-0.16666666666667	0
bin	-0.13333333333333	0
bin	-0.1	0
bin	-0.066666666666667	0
bin	-0.033333333333333	0
bin	0	0
bin	0.033333333333333	0
bin	0.066666666666667	0
bin	0.1	0
bin	0.13333333333333	0
bin	0.16666666666667	0
bin	0.2	0
bin	0.23333333333333	0
bin	0.26666666666667	0
bin	0.3	0
bin	0.33333333333333	0
bin	0.36666666666667	0
bin	0.4	0
bin	0.43333333333333	0
bin	0.46666666666667	0
bin	0.5	0
scalar CAIN.router.ppp[1].queue 	dropPk:count 	0
attr interpolationmode  none
attr source  dropPkByQueue
attr title  "dropped packets, count"
scalar CAIN.router.ppp[1].queue 	dropPk:sum(packetBytes) 	0
attr interpolationmode  none
attr source  dropPkByQueue
attr title  "dropped packets, sum(packetBytes)"
scalar CAIN.router.ppp[1].queue 	queueLength:max 	0
attr interpolationmode  sample-hold
attr title  "queue length, max"
scalar CAIN.router.ppp[1].queue 	queueLength:timeavg 	0
attr interpolationmode  sample-hold
attr title  "queue length, timeavg"
scalar CAIN.router.ppp[1].queue 	rcvdPk:count 	0
attr interpolationmode  none
attr title  "received packets, count"
scalar CAIN.router.ppp[1].queue 	rcvdPk:sum(packetBytes) 	0
attr interpolationmode  none
attr title  "received packets, sum(packetBytes)"
scalar CAIN.router.ppp[1].ppp 	txState:timeavg 	0
attr interpolationmode  sample-hold
attr title  "tx state, timeavg"
scalar CAIN.router.ppp[1].ppp 	droppedPkIfaceDown:count 	0
attr interpolationmode  none
attr source  dropPkIfaceDown
attr title  "packets dropped/interface down, count"
scalar CAIN.router.ppp[1].ppp 	droppedPkIfaceDown:sum(packetBytes) 	0
attr interpolationmode  none
attr source  dropPkIfaceDown
attr title  "packets dropped/interface down, sum(packetBytes)"
scalar CAIN.router.ppp[1].ppp 	droppedPkBitError:count 	0
attr interpolationmode  none
attr source  dropPkBitError
attr title  "packets dropped/bit error, count"
scalar CAIN.router.ppp[1].ppp 	droppedPkBitError:sum(packetBytes) 	0
attr interpolationmode  none
attr source  dropPkBitError
attr title  "packets dropped/bit error, sum(packetBytes)"
scalar CAIN.router.ppp[1].ppp 	rxPkOk:count 	0
attr interpolationmode  none
attr source  rxPkOk
attr title  "packets received OK, count"
scalar CAIN.router.ppp[1].ppp 	rxPkOk:sum(packetBytes) 	0
attr interpolationmode  none
attr source  rxPkOk
attr title  "packets received OK, sum(packetBytes)"
scalar CAIN.router.ppp[1].ppp 	txPk:count 	0
attr interpolationmode  none
attr source  packetSentToLower
attr title  "packets transmitted, count"
scalar CAIN.router.ppp[1].ppp 	txPk:sum(packetBytes) 	0
attr interpolationmode  none
attr source  packetSentToLower
attr title  "packets transmitted, sum(packetBytes)"
scalar CAIN.router.ppp[1].ppp 	rcvdPkFromHL:count 	0
attr interpolationmode  none
attr source  packetReceivedFromUpper
attr title  "packets received from higher layer, count"
scalar CAIN.router.ppp[1].ppp 	rcvdPkFromHL:sum(packetBytes) 	0
attr interpolationmode  none
attr source  packetReceivedFromUpper
attr title  "packets received from higher layer, sum(packetBytes)"
scalar CAIN.router.ppp[1].ppp 	passedUpPk:count 	0
attr interpolationmode  none
attr source  packetSentToUpper
attr title  "packets passed to higher layer, count"
scalar CAIN.router.ppp[1].ppp 	passedUpPk:sum(packetBytes) 	0
attr interpolationmode  none
attr source  packetSentToUpper
attr title  "packets passed to higher layer, sum(packetBytes)"
scalar CAIN.pgw.networkLayer.arp 	failedARPResolution:count 	0
attr title  "ARP failed resolutions, count"
scalar CAIN.pgw.networkLayer.arp 	completedARPResolution:count 	0
attr title  "ARP completed resolutions, count"
scalar CAIN.pgw.networkLayer.arp 	initiatedARPResolution:count 	0
attr title  "ARP initiated resolutions, count"
scalar CAIN.pgw.networkLayer.arp 	sentReply:count 	0
attr title  "ARP replies sent, count"
scalar CAIN.pgw.networkLayer.arp 	sentReq:count 	0
attr title  "ARP request sent, count"
scalar CAIN.pgw.lo0.lo 	droppedPkBitError:count 	0
attr interpolationmode  none
attr source  dropPkBitError
attr title  "packets dropped/bit error, count"
scalar CAIN.pgw.lo0.lo 	droppedPkBitError:sum(packetBytes) 	0
attr interpolationmode  none
attr source  dropPkBitError
attr title  "packets dropped/bit error, sum(packetBytes)"
scalar CAIN.pgw.lo0.lo 	rcvdPkFromHL:count 	0
attr interpolationmode  none
attr source  packetReceivedFromUpper
attr title  "packets received from higher layer, count"
scalar CAIN.pgw.lo0.lo 	rcvdPkFromHL:sum(packetBytes) 	0
attr interpolationmode  none
attr source  packetReceivedFromUpper
attr title  "packets received from higher layer, sum(packetBytes)"
scalar CAIN.pgw.lo0.lo 	passedUpPk:count 	0
attr interpolationmode  none
attr source  packetSentToUpper
attr title  "packets passed to higher layer, count"
scalar CAIN.pgw.lo0.lo 	passedUpPk:sum(packetBytes) 	0
attr interpolationmode  none
attr source  packetSentToUpper
attr title  "packets passed to higher layer, sum(packetBytes)"
statistic CAIN.pgw.ppp[0].queue 	queueingTime:histogram
field count 0
field mean -nan
field stddev -nan
field sum 0
field sqrsum 0
field min -nan
field max -nan
attr interpolationmode  none
attr title  "queueing time, histogram"
bin	-INF	0
bin	-0.5	0
bin	-0.46666666666667	0
bin	-0.43333333333333	0
bin	-0.4	0
bin	-0.36666666666667	0
bin	-0.33333333333333	0
bin	-0.3	0
bin	-0.26666666666667	0
bin	-0.23333333333333	0
bin	-0.2	0
bin	-0.16666666666667	0
bin	-0.13333333333333	0
bin	-0.1	0
bin	-0.066666666666667	0
bin	-0.033333333333333	0
bin	0	0
bin	0.033333333333333	0
bin	0.066666666666667	0
bin	0.1	0
bin	0.13333333333333	0
bin	0.16666666666667	0
bin	0.2	0
bin	0.23333333333333	0
bin	0.26666666666667	0
bin	0.3	0
bin	0.33333333333333	0
bin	0.36666666666667	0
bin	0.4	0
bin	0.43333333333333	0
bin	0.46666666666667	0
bin	0.5	0
scalar CAIN.pgw.ppp[0].queue 	dropPk:count 	0
attr interpolationmode  none
attr source  dropPkByQueue
attr title  "dropped packets, count"
scalar CAIN.pgw.ppp[0].queue 	dropPk:sum(packetBytes) 	0
attr interpolationmode  none
attr source  dropPkByQueue
attr title  "dropped packets, sum(packetBytes)"
scalar CAIN.pgw.ppp[0].queue 	queueLength:max 	0
attr interpolationmode  sample-hold
attr title  "queue length, max"
scalar CAIN.pgw.ppp[0].queue 	queueLength:timeavg 	0
attr interpolationmode  sample-hold
attr title  "queue length, timeavg"
scalar CAIN.pgw.ppp[0].queue 	rcvdPk:count 	0
attr interpolationmode  none
attr title  "received packets, count"
scalar CAIN.pgw.ppp[0].queue 	rcvdPk:sum(packetBytes) 	0
attr interpolationmode  none
attr title  "received packets, sum(packetBytes)"
scalar CAIN.pgw.ppp[0].ppp 	txState:timeavg 	0
attr interpolationmode  sample-hold
attr title  "tx state, timeavg"
scalar CAIN.pgw.ppp[0].ppp 	droppedPkIfaceDown:count 	0
attr interpolationmode  none
attr source  dropPkIfaceDown
attr title  "packets dropped/interface down, count"
scalar CAIN.pgw.ppp[0].ppp 	droppedPkIfaceDown:sum(packetBytes) 	0
attr interpolationmode  none
attr source  dropPkIfaceDown
attr title  "packets dropped/interface down, sum(packetBytes)"
scalar CAIN.pgw.ppp[0].ppp 	droppedPkBitError:count 	0
attr interpolationmode  none
attr source  dropPkBitError
attr title  "packets dropped/bit error, count"
scalar CAIN.pgw.ppp[0].ppp 	droppedPkBitError:sum(packetBytes) 	0
attr interpolationmode  none
attr source  dropPkBitError
attr title  "packets dropped/bit error, sum(packetBytes)"
scalar CAIN.pgw.ppp[0].ppp 	rxPkOk:count 	5
attr interpolationmode  none
attr source  rxPkOk
attr title  "packets received OK, count"
scalar CAIN.pgw.ppp[0].ppp 	rxPkOk:sum(packetBytes) 	395
attr interpolationmode  none
attr source  rxPkOk
attr title  "packets received OK, sum(packetBytes)"
scalar CAIN.pgw.ppp[0].ppp 	txPk:count 	0
attr interpolationmode  none
attr source  packetSentToLower
attr title  "packets transmitted, count"
scalar CAIN.pgw.ppp[0].ppp 	txPk:sum(packetBytes) 	0
attr interpolationmode  none
attr source  packetSentToLower
attr title  "packets transmitted, sum(packetBytes)"
scalar CAIN.pgw.ppp[0].ppp 	rcvdPkFromHL:count 	0
attr interpolationmode  none
attr source  packetReceivedFromUpper
attr title  "packets received from higher layer, count"
scalar CAIN.pgw.ppp[0].ppp 	rcvdPkFromHL:sum(packetBytes) 	0
attr interpolationmode  none
attr source  packetReceivedFromUpper
attr title  "packets received from higher layer, sum(packetBytes)"
scalar CAIN.pgw.ppp[0].ppp 	passedUpPk:count 	5
attr interpolationmode  none
attr source  packetSentToUpper
attr title  "packets passed to higher layer, count"
scalar CAIN.pgw.ppp[0].ppp 	passedUpPk:sum(packetBytes) 	360
attr interpolationmode  none
attr source  packetSentToUpper
attr title  "packets passed to higher layer, sum(packetBytes)"
statistic CAIN.pgw.ppp[1].queue 	queueingTime:histogram
field count 5
field mean 0
field stddev 0
field sum 0
field sqrsum 0
field min 0
field max 0
attr interpolationmode  none
attr title  "queueing time, histogram"
bin	-INF	0
bin	-0.5	0
bin	-0.46666666666667	0
bin	-0.43333333333333	0
bin	-0.4	0
bin	-0.36666666666667	0
bin	-0.33333333333333	0
bin	-0.3	0
bin	-0.26666666666667	0
bin	-0.23333333333333	0
bin	-0.2	0
bin	-0.16666666666667	0
bin	-0.13333333333333	0
bin	-0.1	0
bin	-0.066666666666667	0
bin	-0.033333333333333	0
bin	0	5
bin	0.033333333333333	0
bin	0.066666666666667	0
bin	0.1	0
bin	0.13333333333333	0
bin	0.16666666666667	0
bin	0.2	0
bin	0.23333333333333	0
bin	0.26666666666667	0
bin	0.3	0
bin	0.33333333333333	0
bin	0.36666666666667	0
bin	0.4	0
bin	0.43333333333333	0
bin	0.46666666666667	0
bin	0.5	0
scalar CAIN.pgw.ppp[1].queue 	dropPk:count 	0
attr interpolationmode  none
attr source  dropPkByQueue
attr title  "dropped packets, count"
scalar CAIN.pgw.ppp[1].queue 	dropPk:sum(packetBytes) 	0
attr interpolationmode  none
attr source  dropPkByQueue
attr title  "dropped packets, sum(packetBytes)"
scalar CAIN.pgw.ppp[1].queue 	queueLength:max 	0
attr interpolationmode  sample-hold
attr title  "queue length, max"
scalar CAIN.pgw.ppp[1].queue 	queueLength:timeavg 	0
attr interpolationmode  sample-hold
attr title  "queue length, timeavg"
scalar CAIN.pgw.ppp[1].queue 	rcvdPk:count 	5
attr interpolationmode  none
attr title  "received packets, count"
scalar CAIN.pgw.ppp[1].queue 	rcvdPk:sum(packetBytes) 	360
attr interpolationmode  none
attr title  "received packets, sum(packetBytes)"
scalar CAIN.pgw.ppp[1].ppp 	txState:timeavg 	3.16e-08
attr interpolationmode  sample-hold
attr title  "tx state, timeavg"
scalar CAIN.pgw.ppp[1].ppp 	droppedPkIfaceDown:count 	0
attr interpolationmode  none
attr source  dropPkIfaceDown
attr title  "packets dropped/interface down, count"
scalar CAIN.pgw.ppp[1].ppp 	droppedPkIfaceDown:sum(packetBytes) 	0
attr interpolationmode  none
attr source  dropPkIfaceDown
attr title  "packets dropped/interface down, sum(packetBytes)"
scalar CAIN.pgw.ppp[1].ppp 	droppedPkBitError:count 	0
attr interpolationmode  none
attr source  dropPkBitError
attr title  "packets dropped/bit error, count"
scalar CAIN.pgw.ppp[1].ppp 	droppedPkBitError:sum(packetBytes) 	0
attr interpolationmode  none
attr source  dropPkBitError
attr title  "packets dropped/bit error, sum(packetBytes)"
scalar CAIN.pgw.ppp[1].ppp 	rxPkOk:count 	0
attr interpolationmode  none
attr source  rxPkOk
attr title  "packets received OK, count"
scalar CAIN.pgw.ppp[1].ppp 	rxPkOk:sum(packetBytes) 	0
attr interpolationmode  none
attr source  rxPkOk
attr title  "packets received OK, sum(packetBytes)"
scalar CAIN.pgw.ppp[1].ppp 	txPk:count 	5
attr interpolationmode  none
attr source  packetSentToLower
attr title  "packets transmitted, count"
scalar CAIN.pgw.ppp[1].ppp 	txPk:sum(packetBytes) 	395
attr interpolationmode  none
attr source  packetSentToLower
attr title  "packets transmitted, sum(packetBytes)"
scalar CAIN.pgw.ppp[1].ppp 	rcvdPkFromHL:count 	5
attr interpolationmode  none
attr source  packetReceivedFromUpper
attr title  "packets received from higher layer, count"
scalar CAIN.pgw.ppp[1].ppp 	rcvdPkFromHL:sum(packetBytes) 	360
attr interpolationmode  none
attr source  packetReceivedFromUpper
attr title  "packets received from higher layer, sum(packetBytes)"
scalar CAIN.pgw.ppp[1].ppp 	passedUpPk:count 	0
attr interpolationmode  none
attr source  packetSentToUpper
attr title  "packets passed to higher layer, count"
scalar CAIN.pgw.ppp[1].ppp 	passedUpPk:sum(packetBytes) 	0
attr interpolationmode  none
attr source  packetSentToUpper
attr title  "packets passed to higher layer, sum(packetBytes)"
statistic CAIN.pgw.pppInterface.queue 	queueingTime:histogram
field count 0
field mean -nan
field stddev -nan
field sum 0
field sqrsum 0
field min -nan
field max -nan
attr interpolationmode  none
attr title  "queueing time, histogram"
bin	-INF	0
bin	-0.5	0
bin	-0.46666666666667	0
bin	-0.43333333333333	0
bin	-0.4	0
bin	-0.36666666666667	0
bin	-0.33333333333333	0
bin	-0.3	0
bin	-0.26666666666667	0
bin	-0.23333333333333	0
bin	-0.2	0
bin	-0.16666666666667	0
bin	-0.13333333333333	0
bin	-0.1	0
bin	-0.066666666666667	0
bin	-0.033333333333333	0
bin	0	0
bin	0.033333333333333	0
bin	0.066666666666667	0
bin	0.1	0
bin	0.13333333333333	0
bin	0.16666666666667	0
bin	0.2	0
bin	0.23333333333333	0
bin	0.26666666666667	0
bin	0.3	0
bin	0.33333333333333	0
bin	0.36666666666667	0
bin	0.4	0
bin	0.43333333333333	0
bin	0.46666666666667	0
bin	0.5	0
scalar CAIN.pgw.pppInterface.queue 	dropPk:count 	0
attr interpolationmode  none
attr source  dropPkByQueue
attr title  "dropped packets, count"
scalar CAIN.pgw.pppInterface.queue 	dropPk:sum(packetBytes) 	0
attr interpolationmode  none
attr source  dropPkByQueue
attr title  "dropped packets, sum(packetBytes)"
scalar CAIN.pgw.pppInterface.queue 	queueLength:max 	0
attr interpolationmode  sample-hold
attr title  "queue length, max"
scalar CAIN.pgw.pppInterface.queue 	queueLength:timeavg 	0
attr interpolationmode  sample-hold
attr title  "queue length, timeavg"
scalar CAIN.pgw.pppInterface.queue 	rcvdPk:count 	0
attr interpolationmode  none
attr title  "received packets, count"
scalar CAIN.pgw.pppInterface.queue 	rcvdPk:sum(packetBytes) 	0
attr interpolationmode  none
attr title  "received packets, sum(packetBytes)"
scalar CAIN.pgw.pppInterface.ppp 	txState:timeavg 	0
attr interpolationmode  sample-hold
attr title  "tx state, timeavg"
scalar CAIN.pgw.pppInterface.ppp 	droppedPkIfaceDown:count 	0
attr interpolationmode  none
attr source  dropPkIfaceDown
attr title  "packets dropped/interface down, count"
scalar CAIN.pgw.pppInterface.ppp 	droppedPkIfaceDown:sum(packetBytes) 	0
attr interpolationmode  none
attr source  dropPkIfaceDown
attr title  "packets dropped/interface down, sum(packetBytes)"
scalar CAIN.pgw.pppInterface.ppp 	droppedPkBitError:count 	0
attr interpolationmode  none
attr source  dropPkBitError
attr title  "packets dropped/bit error, count"
scalar CAIN.pgw.pppInterface.ppp 	droppedPkBitError:sum(packetBytes) 	0
attr interpolationmode  none
attr source  dropPkBitError
attr title  "packets dropped/bit error, sum(packetBytes)"
scalar CAIN.pgw.pppInterface.ppp 	rxPkOk:count 	0
attr interpolationmode  none
attr source  rxPkOk
attr title  "packets received OK, count"
scalar CAIN.pgw.pppInterface.ppp 	rxPkOk:sum(packetBytes) 	0
attr interpolationmode  none
attr source  rxPkOk
attr title  "packets received OK, sum(packetBytes)"
scalar CAIN.pgw.pppInterface.ppp 	txPk:count 	0
attr interpolationmode  none
attr source  packetSentToLower
attr title  "packets transmitted, count"
scalar CAIN.pgw.pppInterface.ppp 	txPk:sum(packetBytes) 	0
attr interpolationmode  none
attr source  packetSentToLower
attr title  "packets transmitted, sum(packetBytes)"
scalar CAIN.pgw.pppInterface.ppp 	rcvdPkFromHL:count 	0
attr interpolationmode  none
attr source  packetReceivedFromUpper
attr title  "packets received from higher layer, count"
scalar CAIN.pgw.pppInterface.ppp 	rcvdPkFromHL:sum(packetBytes) 	0
attr interpolationmode  none
attr source  packetReceivedFromUpper
attr title  "packets received from higher layer, sum(packetBytes)"
scalar CAIN.pgw.pppInterface.ppp 	passedUpPk:count 	0
attr interpolationmode  none
attr source  packetSentToUpper
attr title  "packets passed to higher layer, count"
scalar CAIN.pgw.pppInterface.ppp 	passedUpPk:sum(packetBytes) 	0
attr interpolationmode  none
attr source  packetSentToUpper
attr title  "packets passed to higher layer, sum(packetBytes)"
scalar CAIN.pgw.udp 	droppedPkBadChecksum:count 	0
attr interpolationmode  none
attr title  "packets dropped (checksum error), count"
scalar CAIN.pgw.udp 	droppedPkWrongPort:count 	0
attr interpolationmode  none
attr title  "packets dropped (wrong port), count"
scalar CAIN.pgw.udp 	passedUpPk:count 	5
attr interpolationmode  none
attr title  "packets passed up, count"
scalar CAIN.pgw.udp 	rcvdPk:count 	5
attr interpolationmode  none
attr source  rcvdPk
attr title  "packets received, count"
scalar CAIN.pgw.udp 	rcvdPk:sum(packetBytes) 	260
attr interpolationmode  none
attr source  rcvdPk
attr title  "packets received, sum(packetBytes)"
scalar CAIN.pgw.udp 	sentPk:count 	5
attr interpolationmode  none
attr source  sentPk
attr title  "packets sent, count"
scalar CAIN.pgw.udp 	sentPk:sum(packetBytes) 	260
attr interpolationmode  none
attr source  sentPk
attr title  "packets sent, sum(packetBytes)"
scalar CAIN.eNodeB.nic.pdcpRrc 	sentPacketToLowerLayer:count 	0
attr interpolationmode  none
attr source  sentPacketToLowerLayer
scalar CAIN.eNodeB.nic.pdcpRrc 	sentPacketToLowerLayer:sum(packetBytes) 	0
attr interpolationmode  none
attr source  sentPacketToLowerLayer
scalar CAIN.eNodeB.nic.pdcpRrc 	sentPacketToUpperLayer:count 	6
attr interpolationmode  none
attr source  sentPacketToUpperLayer
scalar CAIN.eNodeB.nic.pdcpRrc 	sentPacketToUpperLayer:sum(packetBytes) 	264
attr interpolationmode  none
attr source  sentPacketToUpperLayer
scalar CAIN.eNodeB.nic.pdcpRrc 	receivedPacketFromLowerLayer:count 	6
attr interpolationmode  none
attr source  receivedPacketFromLowerLayer
scalar CAIN.eNodeB.nic.pdcpRrc 	receivedPacketFromLowerLayer:sum(packetBytes) 	270
attr interpolationmode  none
attr source  receivedPacketFromLowerLayer
scalar CAIN.eNodeB.nic.pdcpRrc 	receivedPacketFromUpperLayer:count 	0
attr interpolationmode  none
attr source  receivedPacketFromUpperLayer
scalar CAIN.eNodeB.nic.pdcpRrc 	receivedPacketFromUpperLayer:sum(packetBytes) 	0
attr interpolationmode  none
attr source  receivedPacketFromUpperLayer
scalar CAIN.eNodeB.nic.rlc.um 	rlcCellPacketLossUl:lteAvg 	0
attr source  rlcCellPacketLossUl
attr title  "rlc Cell Packet Loss, lteAvg"
attr unit  ""
scalar CAIN.eNodeB.nic.rlc.um 	rlcCellThroughputUl:lteRate 	27.11660138596
attr source  rlcCellThroughputUl
attr title  "Cell Throughput at the rlc layer UL, lteRate"
attr unit  Bps
scalar CAIN.eNodeB.nic.mac 	cqiDlMuMimo4:lteAvg 	3
attr source  cqiDlMuMimo4
attr title  "Average cqi MuMimo band 4, lteAvg"
attr unit  cqi
scalar CAIN.eNodeB.nic.mac 	cqiDlMuMimo4:lteAvg 	2
attr source  cqiDlMuMimo4
attr title  "Average cqi MuMimo band 4, lteAvg"
attr unit  cqi
scalar CAIN.eNodeB.nic.mac 	cqiDlMuMimo4:lteAvg 	5
attr source  cqiDlMuMimo4
attr title  "Average cqi MuMimo band 4, lteAvg"
attr unit  cqi
scalar CAIN.eNodeB.nic.mac 	cqiDlMuMimo4:lteAvg 	5
attr source  cqiDlMuMimo4
attr title  "Average cqi MuMimo band 4, lteAvg"
attr unit  cqi
scalar CAIN.eNodeB.nic.mac 	cqiDlMuMimo4:lteAvg 	2.001799640072
attr source  cqiDlMuMimo4
attr title  "Average cqi MuMimo band 4, lteAvg"
attr unit  cqi
scalar CAIN.eNodeB.nic.mac 	cqiDlMuMimo4:lteAvg 	2
attr source  cqiDlMuMimo4
attr title  "Average cqi MuMimo band 4, lteAvg"
attr unit  cqi
scalar CAIN.eNodeB.nic.mac 	cqiDlMuMimo4:lteAvg 	2
attr source  cqiDlMuMimo4
attr title  "Average cqi MuMimo band 4, lteAvg"
attr unit  cqi
scalar CAIN.eNodeB.nic.mac 	cqiDlMuMimo4:lteAvg 	2
attr source  cqiDlMuMimo4
attr title  "Average cqi MuMimo band 4, lteAvg"
attr unit  cqi
scalar CAIN.eNodeB.nic.mac 	cqiDlMuMimo4:lteAvg 	6
attr source  cqiDlMuMimo4
attr title  "Average cqi MuMimo band 4, lteAvg"
attr unit  cqi
scalar CAIN.eNodeB.nic.mac 	cqiDlMuMimo4:lteAvg 	8.8920215956809
attr source  cqiDlMuMimo4
attr title  "Average cqi MuMimo band 4, lteAvg"
attr unit  cqi
scalar CAIN.eNodeB.nic.mac 	cqiDlMuMimo4:lteAvg 	2
attr source  cqiDlMuMimo4
attr title  "Average cqi MuMimo band 4, lteAvg"
attr unit  cqi
scalar CAIN.eNodeB.nic.mac 	cqiDlMuMimo4:lteAvg 	2
attr source  cqiDlMuMimo4
attr title  "Average cqi MuMimo band 4, lteAvg"
attr unit  cqi
scalar CAIN.eNodeB.nic.mac 	cqiDlMuMimo4:lteAvg 	2
attr source  cqiDlMuMimo4
attr title  "Average cqi MuMimo band 4, lteAvg"
attr unit  cqi
scalar CAIN.eNodeB.nic.mac 	cqiDlMuMimo4:lteAvg 	2
attr source  cqiDlMuMimo4
attr title  "Average cqi MuMimo band 4, lteAvg"
attr unit  cqi
scalar CAIN.eNodeB.nic.mac 	cqiDlMuMimo4:lteAvg 	3
attr source  cqiDlMuMimo4
attr title  "Average cqi MuMimo band 4, lteAvg"
attr unit  cqi
scalar CAIN.eNodeB.nic.mac 	cqiDlMuMimo4:lteAvg 	14.900419916017
attr source  cqiDlMuMimo4
attr title  "Average cqi MuMimo band 4, lteAvg"
attr unit  cqi
scalar CAIN.eNodeB.nic.mac 	cqiDlMuMimo4:lteAvg 	3
attr source  cqiDlMuMimo4
attr title  "Average cqi MuMimo band 4, lteAvg"
attr unit  cqi
scalar CAIN.eNodeB.nic.mac 	cqiDlMuMimo4:lteAvg 	2
attr source  cqiDlMuMimo4
attr title  "Average cqi MuMimo band 4, lteAvg"
attr unit  cqi
scalar CAIN.eNodeB.nic.mac 	cqiDlMuMimo4:lteAvg 	3
attr source  cqiDlMuMimo4
attr title  "Average cqi MuMimo band 4, lteAvg"
attr unit  cqi
scalar CAIN.eNodeB.nic.mac 	cqiDlMuMimo4:lteAvg 	2.0137972405519
attr source  cqiDlMuMimo4
attr title  "Average cqi MuMimo band 4, lteAvg"
attr unit  cqi
scalar CAIN.eNodeB.nic.mac 	cqiDlMuMimo3:lteAvg 	4
attr source  cqiDlMuMimo3
attr title  "Average cqi MuMimo band 3, lteAvg"
attr unit  cqi
scalar CAIN.eNodeB.nic.mac 	cqiDlMuMimo3:lteAvg 	3
attr source  cqiDlMuMimo3
attr title  "Average cqi MuMimo band 3, lteAvg"
attr unit  cqi
scalar CAIN.eNodeB.nic.mac 	cqiDlMuMimo3:lteAvg 	2
attr source  cqiDlMuMimo3
attr title  "Average cqi MuMimo band 3, lteAvg"
attr unit  cqi
scalar CAIN.eNodeB.nic.mac 	cqiDlMuMimo3:lteAvg 	2
attr source  cqiDlMuMimo3
attr title  "Average cqi MuMimo band 3, lteAvg"
attr unit  cqi
scalar CAIN.eNodeB.nic.mac 	cqiDlMuMimo3:lteAvg 	2.000599880024
attr source  cqiDlMuMimo3
attr title  "Average cqi MuMimo band 3, lteAvg"
attr unit  cqi
scalar CAIN.eNodeB.nic.mac 	cqiDlMuMimo3:lteAvg 	2
attr source  cqiDlMuMimo3
attr title  "Average cqi MuMimo band 3, lteAvg"
attr unit  cqi
scalar CAIN.eNodeB.nic.mac 	cqiDlMuMimo3:lteAvg 	4
attr source  cqiDlMuMimo3
attr title  "Average cqi MuMimo band 3, lteAvg"
attr unit  cqi
scalar CAIN.eNodeB.nic.mac 	cqiDlMuMimo3:lteAvg 	2
attr source  cqiDlMuMimo3
attr title  "Average cqi MuMimo band 3, lteAvg"
attr unit  cqi
scalar CAIN.eNodeB.nic.mac 	cqiDlMuMimo3:lteAvg 	5
attr source  cqiDlMuMimo3
attr title  "Average cqi MuMimo band 3, lteAvg"
attr unit  cqi
scalar CAIN.eNodeB.nic.mac 	cqiDlMuMimo3:lteAvg 	10.807438512298
attr source  cqiDlMuMimo3
attr title  "Average cqi MuMimo band 3, lteAvg"
attr unit  cqi
scalar CAIN.eNodeB.nic.mac 	cqiDlMuMimo3:lteAvg 	2
attr source  cqiDlMuMimo3
attr title  "Average cqi MuMimo band 3, lteAvg"
attr unit  cqi
scalar CAIN.eNodeB.nic.mac 	cqiDlMuMimo3:lteAvg 	2
attr source  cqiDlMuMimo3
attr title  "Average cqi MuMimo band 3, lteAvg"
attr unit  cqi
scalar CAIN.eNodeB.nic.mac 	cqiDlMuMimo3:lteAvg 	2
attr source  cqiDlMuMimo3
attr title  "Average cqi MuMimo band 3, lteAvg"
attr unit  cqi
scalar CAIN.eNodeB.nic.mac 	cqiDlMuMimo3:lteAvg 	2
attr source  cqiDlMuMimo3
attr title  "Average cqi MuMimo band 3, lteAvg"
attr unit  cqi
scalar CAIN.eNodeB.nic.mac 	cqiDlMuMimo3:lteAvg 	2
attr source  cqiDlMuMimo3
attr title  "Average cqi MuMimo band 3, lteAvg"
attr unit  cqi
scalar CAIN.eNodeB.nic.mac 	cqiDlMuMimo3:lteAvg 	13.937612477504
attr source  cqiDlMuMimo3
attr title  "Average cqi MuMimo band 3, lteAvg"
attr unit  cqi
scalar CAIN.eNodeB.nic.mac 	cqiDlMuMimo3:lteAvg 	4
attr source  cqiDlMuMimo3
attr title  "Average cqi MuMimo band 3, lteAvg"
attr unit  cqi
scalar CAIN.eNodeB.nic.mac 	cqiDlMuMimo3:lteAvg 	2
attr source  cqiDlMuMimo3
attr title  "Average cqi MuMimo band 3, lteAvg"
attr unit  cqi
scalar CAIN.eNodeB.nic.mac 	cqiDlMuMimo3:lteAvg 	3
attr source  cqiDlMuMimo3
attr title  "Average cqi MuMimo band 3, lteAvg"
attr unit  cqi
scalar CAIN.eNodeB.nic.mac 	cqiDlMuMimo3:lteAvg 	2.0113977204559
attr source  cqiDlMuMimo3
attr title  "Average cqi MuMimo band 3, lteAvg"
attr unit  cqi
scalar CAIN.eNodeB.nic.mac 	cqiDlMuMimo2:lteAvg 	6
attr source  cqiDlMuMimo2
attr title  "Average cqi MuMimo band 2, lteAvg"
attr unit  cqi
scalar CAIN.eNodeB.nic.mac 	cqiDlMuMimo2:lteAvg 	2
attr source  cqiDlMuMimo2
attr title  "Average cqi MuMimo band 2, lteAvg"
attr unit  cqi
scalar CAIN.eNodeB.nic.mac 	cqiDlMuMimo2:lteAvg 	6
attr source  cqiDlMuMimo2
attr title  "Average cqi MuMimo band 2, lteAvg"
attr unit  cqi
scalar CAIN.eNodeB.nic.mac 	cqiDlMuMimo2:lteAvg 	2
attr source  cqiDlMuMimo2
attr title  "Average cqi MuMimo band 2, lteAvg"
attr unit  cqi
scalar CAIN.eNodeB.nic.mac 	cqiDlMuMimo2:lteAvg 	2
attr source  cqiDlMuMimo2
attr title  "Average cqi MuMimo band 2, lteAvg"
attr unit  cqi
scalar CAIN.eNodeB.nic.mac 	cqiDlMuMimo2:lteAvg 	2
attr source  cqiDlMuMimo2
attr title  "Average cqi MuMimo band 2, lteAvg"
attr unit  cqi
scalar CAIN.eNodeB.nic.mac 	cqiDlMuMimo2:lteAvg 	2
attr source  cqiDlMuMimo2
attr title  "Average cqi MuMimo band 2, lteAvg"
attr unit  cqi
scalar CAIN.eNodeB.nic.mac 	cqiDlMuMimo2:lteAvg 	2
attr source  cqiDlMuMimo2
attr title  "Average cqi MuMimo band 2, lteAvg"
attr unit  cqi
scalar CAIN.eNodeB.nic.mac 	cqiDlMuMimo2:lteAvg 	2
attr source  cqiDlMuMimo2
attr title  "Average cqi MuMimo band 2, lteAvg"
attr unit  cqi
scalar CAIN.eNodeB.nic.mac 	cqiDlMuMimo2:lteAvg 	6.001199760048
attr source  cqiDlMuMimo2
attr title  "Average cqi MuMimo band 2, lteAvg"
attr unit  cqi
scalar CAIN.eNodeB.nic.mac 	cqiDlMuMimo2:lteAvg 	2
attr source  cqiDlMuMimo2
attr title  "Average cqi MuMimo band 2, lteAvg"
attr unit  cqi
scalar CAIN.eNodeB.nic.mac 	cqiDlMuMimo2:lteAvg 	2
attr source  cqiDlMuMimo2
attr title  "Average cqi MuMimo band 2, lteAvg"
attr unit  cqi
scalar CAIN.eNodeB.nic.mac 	cqiDlMuMimo2:lteAvg 	2
attr source  cqiDlMuMimo2
attr title  "Average cqi MuMimo band 2, lteAvg"
attr unit  cqi
scalar CAIN.eNodeB.nic.mac 	cqiDlMuMimo2:lteAvg 	2
attr source  cqiDlMuMimo2
attr title  "Average cqi MuMimo band 2, lteAvg"
attr unit  cqi
scalar CAIN.eNodeB.nic.mac 	cqiDlMuMimo2:lteAvg 	2
attr source  cqiDlMuMimo2
attr title  "Average cqi MuMimo band 2, lteAvg"
attr unit  cqi
scalar CAIN.eNodeB.nic.mac 	cqiDlMuMimo2:lteAvg 	6.2963407318536
attr source  cqiDlMuMimo2
attr title  "Average cqi MuMimo band 2, lteAvg"
attr unit  cqi
scalar CAIN.eNodeB.nic.mac 	cqiDlMuMimo2:lteAvg 	2
attr source  cqiDlMuMimo2
attr title  "Average cqi MuMimo band 2, lteAvg"
attr unit  cqi
scalar CAIN.eNodeB.nic.mac 	cqiDlMuMimo2:lteAvg 	4
attr source  cqiDlMuMimo2
attr title  "Average cqi MuMimo band 2, lteAvg"
attr unit  cqi
scalar CAIN.eNodeB.nic.mac 	cqiDlMuMimo2:lteAvg 	7
attr source  cqiDlMuMimo2
attr title  "Average cqi MuMimo band 2, lteAvg"
attr unit  cqi
scalar CAIN.eNodeB.nic.mac 	cqiDlMuMimo2:lteAvg 	2.9658068386323
attr source  cqiDlMuMimo2
attr title  "Average cqi MuMimo band 2, lteAvg"
attr unit  cqi
scalar CAIN.eNodeB.nic.mac 	cqiDlMuMimo1:lteAvg 	2
attr source  cqiDlMuMimo1
attr title  "Average cqi MuMimo band 1, lteAvg"
attr unit  cqi
scalar CAIN.eNodeB.nic.mac 	cqiDlMuMimo1:lteAvg 	2
attr source  cqiDlMuMimo1
attr title  "Average cqi MuMimo band 1, lteAvg"
attr unit  cqi
scalar CAIN.eNodeB.nic.mac 	cqiDlMuMimo1:lteAvg 	6
attr source  cqiDlMuMimo1
attr title  "Average cqi MuMimo band 1, lteAvg"
attr unit  cqi
scalar CAIN.eNodeB.nic.mac 	cqiDlMuMimo1:lteAvg 	2
attr source  cqiDlMuMimo1
attr title  "Average cqi MuMimo band 1, lteAvg"
attr unit  cqi
scalar CAIN.eNodeB.nic.mac 	cqiDlMuMimo1:lteAvg 	2.000599880024
attr source  cqiDlMuMimo1
attr title  "Average cqi MuMimo band 1, lteAvg"
attr unit  cqi
scalar CAIN.eNodeB.nic.mac 	cqiDlMuMimo1:lteAvg 	2
attr source  cqiDlMuMimo1
attr title  "Average cqi MuMimo band 1, lteAvg"
attr unit  cqi
scalar CAIN.eNodeB.nic.mac 	cqiDlMuMimo1:lteAvg 	4
attr source  cqiDlMuMimo1
attr title  "Average cqi MuMimo band 1, lteAvg"
attr unit  cqi
scalar CAIN.eNodeB.nic.mac 	cqiDlMuMimo1:lteAvg 	2
attr source  cqiDlMuMimo1
attr title  "Average cqi MuMimo band 1, lteAvg"
attr unit  cqi
scalar CAIN.eNodeB.nic.mac 	cqiDlMuMimo1:lteAvg 	2
attr source  cqiDlMuMimo1
attr title  "Average cqi MuMimo band 1, lteAvg"
attr unit  cqi
scalar CAIN.eNodeB.nic.mac 	cqiDlMuMimo1:lteAvg 	6.9568086382723
attr source  cqiDlMuMimo1
attr title  "Average cqi MuMimo band 1, lteAvg"
attr unit  cqi
scalar CAIN.eNodeB.nic.mac 	cqiDlMuMimo1:lteAvg 	2
attr source  cqiDlMuMimo1
attr title  "Average cqi MuMimo band 1, lteAvg"
attr unit  cqi
scalar CAIN.eNodeB.nic.mac 	cqiDlMuMimo1:lteAvg 	2
attr source  cqiDlMuMimo1
attr title  "Average cqi MuMimo band 1, lteAvg"
attr unit  cqi
scalar CAIN.eNodeB.nic.mac 	cqiDlMuMimo1:lteAvg 	2
attr source  cqiDlMuMimo1
attr title  "Average cqi MuMimo band 1, lteAvg"
attr unit  cqi
scalar CAIN.eNodeB.nic.mac 	cqiDlMuMimo1:lteAvg 	2
attr source  cqiDlMuMimo1
attr title  "Average cqi MuMimo band 1, lteAvg"
attr unit  cqi
scalar CAIN.eNodeB.nic.mac 	cqiDlMuMimo1:lteAvg 	2
attr source  cqiDlMuMimo1
attr title  "Average cqi MuMimo band 1, lteAvg"
attr unit  cqi
scalar CAIN.eNodeB.nic.mac 	cqiDlMuMimo1:lteAvg 	9.1163767246551
attr source  cqiDlMuMimo1
attr title  "Average cqi MuMimo band 1, lteAvg"
attr unit  cqi
scalar CAIN.eNodeB.nic.mac 	cqiDlMuMimo1:lteAvg 	2
attr source  cqiDlMuMimo1
attr title  "Average cqi MuMimo band 1, lteAvg"
attr unit  cqi
scalar CAIN.eNodeB.nic.mac 	cqiDlMuMimo1:lteAvg 	2
attr source  cqiDlMuMimo1
attr title  "Average cqi MuMimo band 1, lteAvg"
attr unit  cqi
scalar CAIN.eNodeB.nic.mac 	cqiDlMuMimo1:lteAvg 	2
attr source  cqiDlMuMimo1
attr title  "Average cqi MuMimo band 1, lteAvg"
attr unit  cqi
scalar CAIN.eNodeB.nic.mac 	cqiDlMuMimo1:lteAvg 	2.0131973605279
attr source  cqiDlMuMimo1
attr title  "Average cqi MuMimo band 1, lteAvg"
attr unit  cqi
scalar CAIN.eNodeB.nic.mac 	cqiDlMuMimo0:lteAvg 	2
attr source  cqiDlMuMimo0
attr title  "Average cqi MuMimo band 0, lteAvg"
attr unit  cqi
scalar CAIN.eNodeB.nic.mac 	cqiDlMuMimo0:lteAvg 	2
attr source  cqiDlMuMimo0
attr title  "Average cqi MuMimo band 0, lteAvg"
attr unit  cqi
scalar CAIN.eNodeB.nic.mac 	cqiDlMuMimo0:lteAvg 	2
attr source  cqiDlMuMimo0
attr title  "Average cqi MuMimo band 0, lteAvg"
attr unit  cqi
scalar CAIN.eNodeB.nic.mac 	cqiDlMuMimo0:lteAvg 	2
attr source  cqiDlMuMimo0
attr title  "Average cqi MuMimo band 0, lteAvg"
attr unit  cqi
scalar CAIN.eNodeB.nic.mac 	cqiDlMuMimo0:lteAvg 	2.001199760048
attr source  cqiDlMuMimo0
attr title  "Average cqi MuMimo band 0, lteAvg"
attr unit  cqi
scalar CAIN.eNodeB.nic.mac 	cqiDlMuMimo0:lteAvg 	2
attr source  cqiDlMuMimo0
attr title  "Average cqi MuMimo band 0, lteAvg"
attr unit  cqi
scalar CAIN.eNodeB.nic.mac 	cqiDlMuMimo0:lteAvg 	4
attr source  cqiDlMuMimo0
attr title  "Average cqi MuMimo band 0, lteAvg"
attr unit  cqi
scalar CAIN.eNodeB.nic.mac 	cqiDlMuMimo0:lteAvg 	2
attr source  cqiDlMuMimo0
attr title  "Average cqi MuMimo band 0, lteAvg"
attr unit  cqi
scalar CAIN.eNodeB.nic.mac 	cqiDlMuMimo0:lteAvg 	5
attr source  cqiDlMuMimo0
attr title  "Average cqi MuMimo band 0, lteAvg"
attr unit  cqi
scalar CAIN.eNodeB.nic.mac 	cqiDlMuMimo0:lteAvg 	9.8200359928014
attr source  cqiDlMuMimo0
attr title  "Average cqi MuMimo band 0, lteAvg"
attr unit  cqi
scalar CAIN.eNodeB.nic.mac 	cqiDlMuMimo0:lteAvg 	2
attr source  cqiDlMuMimo0
attr title  "Average cqi MuMimo band 0, lteAvg"
attr unit  cqi
scalar CAIN.eNodeB.nic.mac 	cqiDlMuMimo0:lteAvg 	2
attr source  cqiDlMuMimo0
attr title  "Average cqi MuMimo band 0, lteAvg"
attr unit  cqi
scalar CAIN.eNodeB.nic.mac 	cqiDlMuMimo0:lteAvg 	2
attr source  cqiDlMuMimo0
attr title  "Average cqi MuMimo band 0, lteAvg"
attr unit  cqi
scalar CAIN.eNodeB.nic.mac 	cqiDlMuMimo0:lteAvg 	2
attr source  cqiDlMuMimo0
attr title  "Average cqi MuMimo band 0, lteAvg"
attr unit  cqi
scalar CAIN.eNodeB.nic.mac 	cqiDlMuMimo0:lteAvg 	2
attr source  cqiDlMuMimo0
attr title  "Average cqi MuMimo band 0, lteAvg"
attr unit  cqi
scalar CAIN.eNodeB.nic.mac 	cqiDlMuMimo0:lteAvg 	9.5824835032993
attr source  cqiDlMuMimo0
attr title  "Average cqi MuMimo band 0, lteAvg"
attr unit  cqi
scalar CAIN.eNodeB.nic.mac 	cqiDlMuMimo0:lteAvg 	2
attr source  cqiDlMuMimo0
attr title  "Average cqi MuMimo band 0, lteAvg"
attr unit  cqi
scalar CAIN.eNodeB.nic.mac 	cqiDlMuMimo0:lteAvg 	4
attr source  cqiDlMuMimo0
attr title  "Average cqi MuMimo band 0, lteAvg"
attr unit  cqi
scalar CAIN.eNodeB.nic.mac 	cqiDlMuMimo0:lteAvg 	2
attr source  cqiDlMuMimo0
attr title  "Average cqi MuMimo band 0, lteAvg"
attr unit  cqi
scalar CAIN.eNodeB.nic.mac 	cqiDlMuMimo0:lteAvg 	2.0131973605279
attr source  cqiDlMuMimo0
attr title  "Average cqi MuMimo band 0, lteAvg"
attr unit  cqi
scalar CAIN.eNodeB.nic.mac 	cqiDlTxDiv4:lteAvg 	13
attr source  cqiDlTxDiv4
attr title  "Average cqi TxDiv band 4, lteAvg"
attr unit  cqi
scalar CAIN.eNodeB.nic.mac 	cqiDlTxDiv4:lteAvg 	7
attr source  cqiDlTxDiv4
attr title  "Average cqi TxDiv band 4, lteAvg"
attr unit  cqi
scalar CAIN.eNodeB.nic.mac 	cqiDlTxDiv4:lteAvg 	15
attr source  cqiDlTxDiv4
attr title  "Average cqi TxDiv band 4, lteAvg"
attr unit  cqi
scalar CAIN.eNodeB.nic.mac 	cqiDlTxDiv4:lteAvg 	15
attr source  cqiDlTxDiv4
attr title  "Average cqi TxDiv band 4, lteAvg"
attr unit  cqi
scalar CAIN.eNodeB.nic.mac 	cqiDlTxDiv4:lteAvg 	10.831433713257
attr source  cqiDlTxDiv4
attr title  "Average cqi TxDiv band 4, lteAvg"
attr unit  cqi
scalar CAIN.eNodeB.nic.mac 	cqiDlTxDiv4:lteAvg 	2
attr source  cqiDlTxDiv4
attr title  "Average cqi TxDiv band 4, lteAvg"
attr unit  cqi
scalar CAIN.eNodeB.nic.mac 	cqiDlTxDiv4:lteAvg 	10
attr source  cqiDlTxDiv4
attr title  "Average cqi TxDiv band 4, lteAvg"
attr unit  cqi
scalar CAIN.eNodeB.nic.mac 	cqiDlTxDiv4:lteAvg 	7
attr source  cqiDlTxDiv4
attr title  "Average cqi TxDiv band 4, lteAvg"
attr unit  cqi
scalar CAIN.eNodeB.nic.mac 	cqiDlTxDiv4:lteAvg 	15
attr source  cqiDlTxDiv4
attr title  "Average cqi TxDiv band 4, lteAvg"
attr unit  cqi
scalar CAIN.eNodeB.nic.mac 	cqiDlTxDiv4:lteAvg 	14.95800839832
attr source  cqiDlTxDiv4
attr title  "Average cqi TxDiv band 4, lteAvg"
attr unit  cqi
scalar CAIN.eNodeB.nic.mac 	cqiDlTxDiv4:lteAvg 	4
attr source  cqiDlTxDiv4
attr title  "Average cqi TxDiv band 4, lteAvg"
attr unit  cqi
scalar CAIN.eNodeB.nic.mac 	cqiDlTxDiv4:lteAvg 	8
attr source  cqiDlTxDiv4
attr title  "Average cqi TxDiv band 4, lteAvg"
attr unit  cqi
scalar CAIN.eNodeB.nic.mac 	cqiDlTxDiv4:lteAvg 	2
attr source  cqiDlTxDiv4
attr title  "Average cqi TxDiv band 4, lteAvg"
attr unit  cqi
scalar CAIN.eNodeB.nic.mac 	cqiDlTxDiv4:lteAvg 	2
attr source  cqiDlTxDiv4
attr title  "Average cqi TxDiv band 4, lteAvg"
attr unit  cqi
scalar CAIN.eNodeB.nic.mac 	cqiDlTxDiv4:lteAvg 	13
attr source  cqiDlTxDiv4
attr title  "Average cqi TxDiv band 4, lteAvg"
attr unit  cqi
scalar CAIN.eNodeB.nic.mac 	cqiDlTxDiv4:lteAvg 	15
attr source  cqiDlTxDiv4
attr title  "Average cqi TxDiv band 4, lteAvg"
attr unit  cqi
scalar CAIN.eNodeB.nic.mac 	cqiDlTxDiv4:lteAvg 	13
attr source  cqiDlTxDiv4
attr title  "Average cqi TxDiv band 4, lteAvg"
attr unit  cqi
scalar CAIN.eNodeB.nic.mac 	cqiDlTxDiv4:lteAvg 	8
attr source  cqiDlTxDiv4
attr title  "Average cqi TxDiv band 4, lteAvg"
attr unit  cqi
scalar CAIN.eNodeB.nic.mac 	cqiDlTxDiv4:lteAvg 	13
attr source  cqiDlTxDiv4
attr title  "Average cqi TxDiv band 4, lteAvg"
attr unit  cqi
scalar CAIN.eNodeB.nic.mac 	cqiDlTxDiv4:lteAvg 	6.119976004799
attr source  cqiDlTxDiv4
attr title  "Average cqi TxDiv band 4, lteAvg"
attr unit  cqi
scalar CAIN.eNodeB.nic.mac 	cqiDlTxDiv3:lteAvg 	14
attr source  cqiDlTxDiv3
attr title  "Average cqi TxDiv band 3, lteAvg"
attr unit  cqi
scalar CAIN.eNodeB.nic.mac 	cqiDlTxDiv3:lteAvg 	13
attr source  cqiDlTxDiv3
attr title  "Average cqi TxDiv band 3, lteAvg"
attr unit  cqi
scalar CAIN.eNodeB.nic.mac 	cqiDlTxDiv3:lteAvg 	6
attr source  cqiDlTxDiv3
attr title  "Average cqi TxDiv band 3, lteAvg"
attr unit  cqi
scalar CAIN.eNodeB.nic.mac 	cqiDlTxDiv3:lteAvg 	4
attr source  cqiDlTxDiv3
attr title  "Average cqi TxDiv band 3, lteAvg"
attr unit  cqi
scalar CAIN.eNodeB.nic.mac 	cqiDlTxDiv3:lteAvg 	6.0389922015597
attr source  cqiDlTxDiv3
attr title  "Average cqi TxDiv band 3, lteAvg"
attr unit  cqi
scalar CAIN.eNodeB.nic.mac 	cqiDlTxDiv3:lteAvg 	2
attr source  cqiDlTxDiv3
attr title  "Average cqi TxDiv band 3, lteAvg"
attr unit  cqi
scalar CAIN.eNodeB.nic.mac 	cqiDlTxDiv3:lteAvg 	14
attr source  cqiDlTxDiv3
attr title  "Average cqi TxDiv band 3, lteAvg"
attr unit  cqi
scalar CAIN.eNodeB.nic.mac 	cqiDlTxDiv3:lteAvg 	6
attr source  cqiDlTxDiv3
attr title  "Average cqi TxDiv band 3, lteAvg"
attr unit  cqi
scalar CAIN.eNodeB.nic.mac 	cqiDlTxDiv3:lteAvg 	15
attr source  cqiDlTxDiv3
attr title  "Average cqi TxDiv band 3, lteAvg"
attr unit  cqi
scalar CAIN.eNodeB.nic.mac 	cqiDlTxDiv3:lteAvg 	14.953809238152
attr source  cqiDlTxDiv3
attr title  "Average cqi TxDiv band 3, lteAvg"
attr unit  cqi
scalar CAIN.eNodeB.nic.mac 	cqiDlTxDiv3:lteAvg 	4
attr source  cqiDlTxDiv3
attr title  "Average cqi TxDiv band 3, lteAvg"
attr unit  cqi
scalar CAIN.eNodeB.nic.mac 	cqiDlTxDiv3:lteAvg 	8
attr source  cqiDlTxDiv3
attr title  "Average cqi TxDiv band 3, lteAvg"
attr unit  cqi
scalar CAIN.eNodeB.nic.mac 	cqiDlTxDiv3:lteAvg 	2
attr source  cqiDlTxDiv3
attr title  "Average cqi TxDiv band 3, lteAvg"
attr unit  cqi
scalar CAIN.eNodeB.nic.mac 	cqiDlTxDiv3:lteAvg 	10
attr source  cqiDlTxDiv3
attr title  "Average cqi TxDiv band 3, lteAvg"
attr unit  cqi
scalar CAIN.eNodeB.nic.mac 	cqiDlTxDiv3:lteAvg 	8
attr source  cqiDlTxDiv3
attr title  "Average cqi TxDiv band 3, lteAvg"
attr unit  cqi
scalar CAIN.eNodeB.nic.mac 	cqiDlTxDiv3:lteAvg 	14.987402519496
attr source  cqiDlTxDiv3
attr title  "Average cqi TxDiv band 3, lteAvg"
attr unit  cqi
scalar CAIN.eNodeB.nic.mac 	cqiDlTxDiv3:lteAvg 	14
attr source  cqiDlTxDiv3
attr title  "Average cqi TxDiv band 3, lteAvg"
attr unit  cqi
scalar CAIN.eNodeB.nic.mac 	cqiDlTxDiv3:lteAvg 	11
attr source  cqiDlTxDiv3
attr title  "Average cqi TxDiv band 3, lteAvg"
attr unit  cqi
scalar CAIN.eNodeB.nic.mac 	cqiDlTxDiv3:lteAvg 	13
attr source  cqiDlTxDiv3
attr title  "Average cqi TxDiv band 3, lteAvg"
attr unit  cqi
scalar CAIN.eNodeB.nic.mac 	cqiDlTxDiv3:lteAvg 	6.1361727654469
attr source  cqiDlTxDiv3
attr title  "Average cqi TxDiv band 3, lteAvg"
attr unit  cqi
scalar CAIN.eNodeB.nic.mac 	cqiDlTxDiv2:lteAvg 	15
attr source  cqiDlTxDiv2
attr title  "Average cqi TxDiv band 2, lteAvg"
attr unit  cqi
scalar CAIN.eNodeB.nic.mac 	cqiDlTxDiv2:lteAvg 	9
attr source  cqiDlTxDiv2
attr title  "Average cqi TxDiv band 2, lteAvg"
attr unit  cqi
scalar CAIN.eNodeB.nic.mac 	cqiDlTxDiv2:lteAvg 	15
attr source  cqiDlTxDiv2
attr title  "Average cqi TxDiv band 2, lteAvg"
attr unit  cqi
scalar CAIN.eNodeB.nic.mac 	cqiDlTxDiv2:lteAvg 	8
attr source  cqiDlTxDiv2
attr title  "Average cqi TxDiv band 2, lteAvg"
attr unit  cqi
scalar CAIN.eNodeB.nic.mac 	cqiDlTxDiv2:lteAvg 	7.9436112777445
attr source  cqiDlTxDiv2
attr title  "Average cqi TxDiv band 2, lteAvg"
attr unit  cqi
scalar CAIN.eNodeB.nic.mac 	cqiDlTxDiv2:lteAvg 	7
attr source  cqiDlTxDiv2
attr title  "Average cqi TxDiv band 2, lteAvg"
attr unit  cqi
scalar CAIN.eNodeB.nic.mac 	cqiDlTxDiv2:lteAvg 	10
attr source  cqiDlTxDiv2
attr title  "Average cqi TxDiv band 2, lteAvg"
attr unit  cqi
scalar CAIN.eNodeB.nic.mac 	cqiDlTxDiv2:lteAvg 	4
attr source  cqiDlTxDiv2
attr title  "Average cqi TxDiv band 2, lteAvg"
attr unit  cqi
scalar CAIN.eNodeB.nic.mac 	cqiDlTxDiv2:lteAvg 	3
attr source  cqiDlTxDiv2
attr title  "Average cqi TxDiv band 2, lteAvg"
attr unit  cqi
scalar CAIN.eNodeB.nic.mac 	cqiDlTxDiv2:lteAvg 	14.923815236953
attr source  cqiDlTxDiv2
attr title  "Average cqi TxDiv band 2, lteAvg"
attr unit  cqi
scalar CAIN.eNodeB.nic.mac 	cqiDlTxDiv2:lteAvg 	9
attr source  cqiDlTxDiv2
attr title  "Average cqi TxDiv band 2, lteAvg"
attr unit  cqi
scalar CAIN.eNodeB.nic.mac 	cqiDlTxDiv2:lteAvg 	6
attr source  cqiDlTxDiv2
attr title  "Average cqi TxDiv band 2, lteAvg"
attr unit  cqi
scalar CAIN.eNodeB.nic.mac 	cqiDlTxDiv2:lteAvg 	2
attr source  cqiDlTxDiv2
attr title  "Average cqi TxDiv band 2, lteAvg"
attr unit  cqi
scalar CAIN.eNodeB.nic.mac 	cqiDlTxDiv2:lteAvg 	2
attr source  cqiDlTxDiv2
attr title  "Average cqi TxDiv band 2, lteAvg"
attr unit  cqi
scalar CAIN.eNodeB.nic.mac 	cqiDlTxDiv2:lteAvg 	9
attr source  cqiDlTxDiv2
attr title  "Average cqi TxDiv band 2, lteAvg"
attr unit  cqi
scalar CAIN.eNodeB.nic.mac 	cqiDlTxDiv2:lteAvg 	14.991601679664
attr source  cqiDlTxDiv2
attr title  "Average cqi TxDiv band 2, lteAvg"
attr unit  cqi
scalar CAIN.eNodeB.nic.mac 	cqiDlTxDiv2:lteAvg 	3
attr source  cqiDlTxDiv2
attr title  "Average cqi TxDiv band 2, lteAvg"
attr unit  cqi
scalar CAIN.eNodeB.nic.mac 	cqiDlTxDiv2:lteAvg 	14
attr source  cqiDlTxDiv2
attr title  "Average cqi TxDiv band 2, lteAvg"
attr unit  cqi
scalar CAIN.eNodeB.nic.mac 	cqiDlTxDiv2:lteAvg 	15
attr source  cqiDlTxDiv2
attr title  "Average cqi TxDiv band 2, lteAvg"
attr unit  cqi
scalar CAIN.eNodeB.nic.mac 	cqiDlTxDiv2:lteAvg 	12.79724055189
attr source  cqiDlTxDiv2
attr title  "Average cqi TxDiv band 2, lteAvg"
attr unit  cqi
scalar CAIN.eNodeB.nic.mac 	cqiDlTxDiv1:lteAvg 	8
attr source  cqiDlTxDiv1
attr title  "Average cqi TxDiv band 1, lteAvg"
attr unit  cqi
scalar CAIN.eNodeB.nic.mac 	cqiDlTxDiv1:lteAvg 	13
attr source  cqiDlTxDiv1
attr title  "Average cqi TxDiv band 1, lteAvg"
attr unit  cqi
scalar CAIN.eNodeB.nic.mac 	cqiDlTxDiv1:lteAvg 	15
attr source  cqiDlTxDiv1
attr title  "Average cqi TxDiv band 1, lteAvg"
attr unit  cqi
scalar CAIN.eNodeB.nic.mac 	cqiDlTxDiv1:lteAvg 	8
attr source  cqiDlTxDiv1
attr title  "Average cqi TxDiv band 1, lteAvg"
attr unit  cqi
scalar CAIN.eNodeB.nic.mac 	cqiDlTxDiv1:lteAvg 	8.9094181163767
attr source  cqiDlTxDiv1
attr title  "Average cqi TxDiv band 1, lteAvg"
attr unit  cqi
scalar CAIN.eNodeB.nic.mac 	cqiDlTxDiv1:lteAvg 	4
attr source  cqiDlTxDiv1
attr title  "Average cqi TxDiv band 1, lteAvg"
attr unit  cqi
scalar CAIN.eNodeB.nic.mac 	cqiDlTxDiv1:lteAvg 	14
attr source  cqiDlTxDiv1
attr title  "Average cqi TxDiv band 1, lteAvg"
attr unit  cqi
scalar CAIN.eNodeB.nic.mac 	cqiDlTxDiv1:lteAvg 	9
attr source  cqiDlTxDiv1
attr title  "Average cqi TxDiv band 1, lteAvg"
attr unit  cqi
scalar CAIN.eNodeB.nic.mac 	cqiDlTxDiv1:lteAvg 	8
attr source  cqiDlTxDiv1
attr title  "Average cqi TxDiv band 1, lteAvg"
attr unit  cqi
scalar CAIN.eNodeB.nic.mac 	cqiDlTxDiv1:lteAvg 	14.949610077984
attr source  cqiDlTxDiv1
attr title  "Average cqi TxDiv band 1, lteAvg"
attr unit  cqi
scalar CAIN.eNodeB.nic.mac 	cqiDlTxDiv1:lteAvg 	8
attr source  cqiDlTxDiv1
attr title  "Average cqi TxDiv band 1, lteAvg"
attr unit  cqi
scalar CAIN.eNodeB.nic.mac 	cqiDlTxDiv1:lteAvg 	7
attr source  cqiDlTxDiv1
attr title  "Average cqi TxDiv band 1, lteAvg"
attr unit  cqi
scalar CAIN.eNodeB.nic.mac 	cqiDlTxDiv1:lteAvg 	2
attr source  cqiDlTxDiv1
attr title  "Average cqi TxDiv band 1, lteAvg"
attr unit  cqi
scalar CAIN.eNodeB.nic.mac 	cqiDlTxDiv1:lteAvg 	3
attr source  cqiDlTxDiv1
attr title  "Average cqi TxDiv band 1, lteAvg"
attr unit  cqi
scalar CAIN.eNodeB.nic.mac 	cqiDlTxDiv1:lteAvg 	7
attr source  cqiDlTxDiv1
attr title  "Average cqi TxDiv band 1, lteAvg"
attr unit  cqi
scalar CAIN.eNodeB.nic.mac 	cqiDlTxDiv1:lteAvg 	14.984403119376
attr source  cqiDlTxDiv1
attr title  "Average cqi TxDiv band 1, lteAvg"
attr unit  cqi
scalar CAIN.eNodeB.nic.mac 	cqiDlTxDiv1:lteAvg 	13
attr source  cqiDlTxDiv1
attr title  "Average cqi TxDiv band 1, lteAvg"
attr unit  cqi
scalar CAIN.eNodeB.nic.mac 	cqiDlTxDiv1:lteAvg 	13
attr source  cqiDlTxDiv1
attr title  "Average cqi TxDiv band 1, lteAvg"
attr unit  cqi
scalar CAIN.eNodeB.nic.mac 	cqiDlTxDiv1:lteAvg 	8
attr source  cqiDlTxDiv1
attr title  "Average cqi TxDiv band 1, lteAvg"
attr unit  cqi
scalar CAIN.eNodeB.nic.mac 	cqiDlTxDiv1:lteAvg 	4.7114577084583
attr source  cqiDlTxDiv1
attr title  "Average cqi TxDiv band 1, lteAvg"
attr unit  cqi
scalar CAIN.eNodeB.nic.mac 	cqiDlTxDiv0:lteAvg 	11
attr source  cqiDlTxDiv0
attr title  "Average cqi TxDiv band 0, lteAvg"
attr unit  cqi
scalar CAIN.eNodeB.nic.mac 	cqiDlTxDiv0:lteAvg 	6
attr source  cqiDlTxDiv0
attr title  "Average cqi TxDiv band 0, lteAvg"
attr unit  cqi
scalar CAIN.eNodeB.nic.mac 	cqiDlTxDiv0:lteAvg 	4
attr source  cqiDlTxDiv0
attr title  "Average cqi TxDiv band 0, lteAvg"
attr unit  cqi
scalar CAIN.eNodeB.nic.mac 	cqiDlTxDiv0:lteAvg 	9
attr source  cqiDlTxDiv0
attr title  "Average cqi TxDiv band 0, lteAvg"
attr unit  cqi
scalar CAIN.eNodeB.nic.mac 	cqiDlTxDiv0:lteAvg 	2.2039592081584
attr source  cqiDlTxDiv0
attr title  "Average cqi TxDiv band 0, lteAvg"
attr unit  cqi
scalar CAIN.eNodeB.nic.mac 	cqiDlTxDiv0:lteAvg 	6
attr source  cqiDlTxDiv0
attr title  "Average cqi TxDiv band 0, lteAvg"
attr unit  cqi
scalar CAIN.eNodeB.nic.mac 	cqiDlTxDiv0:lteAvg 	14
attr source  cqiDlTxDiv0
attr title  "Average cqi TxDiv band 0, lteAvg"
attr unit  cqi
scalar CAIN.eNodeB.nic.mac 	cqiDlTxDiv0:lteAvg 	7
attr source  cqiDlTxDiv0
attr title  "Average cqi TxDiv band 0, lteAvg"
attr unit  cqi
scalar CAIN.eNodeB.nic.mac 	cqiDlTxDiv0:lteAvg 	15
attr source  cqiDlTxDiv0
attr title  "Average cqi TxDiv band 0, lteAvg"
attr unit  cqi
scalar CAIN.eNodeB.nic.mac 	cqiDlTxDiv0:lteAvg 	14.934613077385
attr source  cqiDlTxDiv0
attr title  "Average cqi TxDiv band 0, lteAvg"
attr unit  cqi
scalar CAIN.eNodeB.nic.mac 	cqiDlTxDiv0:lteAvg 	8
attr source  cqiDlTxDiv0
attr title  "Average cqi TxDiv band 0, lteAvg"
attr unit  cqi
scalar CAIN.eNodeB.nic.mac 	cqiDlTxDiv0:lteAvg 	9
attr source  cqiDlTxDiv0
attr title  "Average cqi TxDiv band 0, lteAvg"
attr unit  cqi
scalar CAIN.eNodeB.nic.mac 	cqiDlTxDiv0:lteAvg 	6
attr source  cqiDlTxDiv0
attr title  "Average cqi TxDiv band 0, lteAvg"
attr unit  cqi
scalar CAIN.eNodeB.nic.mac 	cqiDlTxDiv0:lteAvg 	7
attr source  cqiDlTxDiv0
attr title  "Average cqi TxDiv band 0, lteAvg"
attr unit  cqi
scalar CAIN.eNodeB.nic.mac 	cqiDlTxDiv0:lteAvg 	10
attr source  cqiDlTxDiv0
attr title  "Average cqi TxDiv band 0, lteAvg"
attr unit  cqi
scalar CAIN.eNodeB.nic.mac 	cqiDlTxDiv0:lteAvg 	15
attr source  cqiDlTxDiv0
attr title  "Average cqi TxDiv band 0, lteAvg"
attr unit  cqi
scalar CAIN.eNodeB.nic.mac 	cqiDlTxDiv0:lteAvg 	13
attr source  cqiDlTxDiv0
attr title  "Average cqi TxDiv band 0, lteAvg"
attr unit  cqi
scalar CAIN.eNodeB.nic.mac 	cqiDlTxDiv0:lteAvg 	15
attr source  cqiDlTxDiv0
attr title  "Average cqi TxDiv band 0, lteAvg"
attr unit  cqi
scalar CAIN.eNodeB.nic.mac 	cqiDlTxDiv0:lteAvg 	13
attr source  cqiDlTxDiv0
attr title  "Average cqi TxDiv band 0, lteAvg"
attr unit  cqi
scalar CAIN.eNodeB.nic.mac 	cqiDlTxDiv0:lteAvg 	4.2291541691662
attr source  cqiDlTxDiv0
attr title  "Average cqi TxDiv band 0, lteAvg"
attr unit  cqi
scalar CAIN.eNodeB.nic.mac 	cqiDlSpmux4:lteAvg 	4
attr source  cqiDlSpmux4
attr title  "Average cqi Spmux band 4, lteAvg"
attr unit  cqi
scalar CAIN.eNodeB.nic.mac 	cqiDlSpmux4:lteAvg 	2
attr source  cqiDlSpmux4
attr title  "Average cqi Spmux band 4, lteAvg"
attr unit  cqi
scalar CAIN.eNodeB.nic.mac 	cqiDlSpmux4:lteAvg 	5
attr source  cqiDlSpmux4
attr title  "Average cqi Spmux band 4, lteAvg"
attr unit  cqi
scalar CAIN.eNodeB.nic.mac 	cqiDlSpmux4:lteAvg 	5
attr source  cqiDlSpmux4
attr title  "Average cqi Spmux band 4, lteAvg"
attr unit  cqi
scalar CAIN.eNodeB.nic.mac 	cqiDlSpmux4:lteAvg 	2.9646070785843
attr source  cqiDlSpmux4
attr title  "Average cqi Spmux band 4, lteAvg"
attr unit  cqi
scalar CAIN.eNodeB.nic.mac 	cqiDlSpmux4:lteAvg 	2
attr source  cqiDlSpmux4
attr title  "Average cqi Spmux band 4, lteAvg"
attr unit  cqi
scalar CAIN.eNodeB.nic.mac 	cqiDlSpmux4:lteAvg 	2
attr source  cqiDlSpmux4
attr title  "Average cqi Spmux band 4, lteAvg"
attr unit  cqi
scalar CAIN.eNodeB.nic.mac 	cqiDlSpmux4:lteAvg 	2
attr source  cqiDlSpmux4
attr title  "Average cqi Spmux band 4, lteAvg"
attr unit  cqi
scalar CAIN.eNodeB.nic.mac 	cqiDlSpmux4:lteAvg 	6
attr source  cqiDlSpmux4
attr title  "Average cqi Spmux band 4, lteAvg"
attr unit  cqi
scalar CAIN.eNodeB.nic.mac 	cqiDlSpmux4:lteAvg 	6.9466106778644
attr source  cqiDlSpmux4
attr title  "Average cqi Spmux band 4, lteAvg"
attr unit  cqi
scalar CAIN.eNodeB.nic.mac 	cqiDlSpmux4:lteAvg 	2
attr source  cqiDlSpmux4
attr title  "Average cqi Spmux band 4, lteAvg"
attr unit  cqi
scalar CAIN.eNodeB.nic.mac 	cqiDlSpmux4:lteAvg 	2
attr source  cqiDlSpmux4
attr title  "Average cqi Spmux band 4, lteAvg"
attr unit  cqi
scalar CAIN.eNodeB.nic.mac 	cqiDlSpmux4:lteAvg 	2
attr source  cqiDlSpmux4
attr title  "Average cqi Spmux band 4, lteAvg"
attr unit  cqi
scalar CAIN.eNodeB.nic.mac 	cqiDlSpmux4:lteAvg 	2
attr source  cqiDlSpmux4
attr title  "Average cqi Spmux band 4, lteAvg"
attr unit  cqi
scalar CAIN.eNodeB.nic.mac 	cqiDlSpmux4:lteAvg 	4
attr source  cqiDlSpmux4
attr title  "Average cqi Spmux band 4, lteAvg"
attr unit  cqi
scalar CAIN.eNodeB.nic.mac 	cqiDlSpmux4:lteAvg 	14.79424115177
attr source  cqiDlSpmux4
attr title  "Average cqi Spmux band 4, lteAvg"
attr unit  cqi
scalar CAIN.eNodeB.nic.mac 	cqiDlSpmux4:lteAvg 	4
attr source  cqiDlSpmux4
attr title  "Average cqi Spmux band 4, lteAvg"
attr unit  cqi
scalar CAIN.eNodeB.nic.mac 	cqiDlSpmux4:lteAvg 	2
attr source  cqiDlSpmux4
attr title  "Average cqi Spmux band 4, lteAvg"
attr unit  cqi
scalar CAIN.eNodeB.nic.mac 	cqiDlSpmux4:lteAvg 	4
attr source  cqiDlSpmux4
attr title  "Average cqi Spmux band 4, lteAvg"
attr unit  cqi
scalar CAIN.eNodeB.nic.mac 	cqiDlSpmux4:lteAvg 	2.0299940011998
attr source  cqiDlSpmux4
attr title  "Average cqi Spmux band 4, lteAvg"
attr unit  cqi
scalar CAIN.eNodeB.nic.mac 	cqiDlSpmux3:lteAvg 	5
attr source  cqiDlSpmux3
attr title  "Average cqi Spmux band 3, lteAvg"
attr unit  cqi
scalar CAIN.eNodeB.nic.mac 	cqiDlSpmux3:lteAvg 	4
attr source  cqiDlSpmux3
attr title  "Average cqi Spmux band 3, lteAvg"
attr unit  cqi
scalar CAIN.eNodeB.nic.mac 	cqiDlSpmux3:lteAvg 	2
attr source  cqiDlSpmux3
attr title  "Average cqi Spmux band 3, lteAvg"
attr unit  cqi
scalar CAIN.eNodeB.nic.mac 	cqiDlSpmux3:lteAvg 	2
attr source  cqiDlSpmux3
attr title  "Average cqi Spmux band 3, lteAvg"
attr unit  cqi
scalar CAIN.eNodeB.nic.mac 	cqiDlSpmux3:lteAvg 	2.003599280144
attr source  cqiDlSpmux3
attr title  "Average cqi Spmux band 3, lteAvg"
attr unit  cqi
scalar CAIN.eNodeB.nic.mac 	cqiDlSpmux3:lteAvg 	2
attr source  cqiDlSpmux3
attr title  "Average cqi Spmux band 3, lteAvg"
attr unit  cqi
scalar CAIN.eNodeB.nic.mac 	cqiDlSpmux3:lteAvg 	5
attr source  cqiDlSpmux3
attr title  "Average cqi Spmux band 3, lteAvg"
attr unit  cqi
scalar CAIN.eNodeB.nic.mac 	cqiDlSpmux3:lteAvg 	2
attr source  cqiDlSpmux3
attr title  "Average cqi Spmux band 3, lteAvg"
attr unit  cqi
scalar CAIN.eNodeB.nic.mac 	cqiDlSpmux3:lteAvg 	5
attr source  cqiDlSpmux3
attr title  "Average cqi Spmux band 3, lteAvg"
attr unit  cqi
scalar CAIN.eNodeB.nic.mac 	cqiDlSpmux3:lteAvg 	7.9028194361128
attr source  cqiDlSpmux3
attr title  "Average cqi Spmux band 3, lteAvg"
attr unit  cqi
scalar CAIN.eNodeB.nic.mac 	cqiDlSpmux3:lteAvg 	2
attr source  cqiDlSpmux3
attr title  "Average cqi Spmux band 3, lteAvg"
attr unit  cqi
scalar CAIN.eNodeB.nic.mac 	cqiDlSpmux3:lteAvg 	2
attr source  cqiDlSpmux3
attr title  "Average cqi Spmux band 3, lteAvg"
attr unit  cqi
scalar CAIN.eNodeB.nic.mac 	cqiDlSpmux3:lteAvg 	2
attr source  cqiDlSpmux3
attr title  "Average cqi Spmux band 3, lteAvg"
attr unit  cqi
scalar CAIN.eNodeB.nic.mac 	cqiDlSpmux3:lteAvg 	2
attr source  cqiDlSpmux3
attr title  "Average cqi Spmux band 3, lteAvg"
attr unit  cqi
scalar CAIN.eNodeB.nic.mac 	cqiDlSpmux3:lteAvg 	2
attr source  cqiDlSpmux3
attr title  "Average cqi Spmux band 3, lteAvg"
attr unit  cqi
scalar CAIN.eNodeB.nic.mac 	cqiDlSpmux3:lteAvg 	10.02699460108
attr source  cqiDlSpmux3
attr title  "Average cqi Spmux band 3, lteAvg"
attr unit  cqi
scalar CAIN.eNodeB.nic.mac 	cqiDlSpmux3:lteAvg 	5
attr source  cqiDlSpmux3
attr title  "Average cqi Spmux band 3, lteAvg"
attr unit  cqi
scalar CAIN.eNodeB.nic.mac 	cqiDlSpmux3:lteAvg 	3
attr source  cqiDlSpmux3
attr title  "Average cqi Spmux band 3, lteAvg"
attr unit  cqi
scalar CAIN.eNodeB.nic.mac 	cqiDlSpmux3:lteAvg 	4
attr source  cqiDlSpmux3
attr title  "Average cqi Spmux band 3, lteAvg"
attr unit  cqi
scalar CAIN.eNodeB.nic.mac 	cqiDlSpmux3:lteAvg 	2.0263947210558
attr source  cqiDlSpmux3
attr title  "Average cqi Spmux band 3, lteAvg"
attr unit  cqi
scalar CAIN.eNodeB.nic.mac 	cqiDlSpmux2:lteAvg 	6
attr source  cqiDlSpmux2
attr title  "Average cqi Spmux band 2, lteAvg"
attr unit  cqi
scalar CAIN.eNodeB.nic.mac 	cqiDlSpmux2:lteAvg 	2
attr source  cqiDlSpmux2
attr title  "Average cqi Spmux band 2, lteAvg"
attr unit  cqi
scalar CAIN.eNodeB.nic.mac 	cqiDlSpmux2:lteAvg 	6
attr source  cqiDlSpmux2
attr title  "Average cqi Spmux band 2, lteAvg"
attr unit  cqi
scalar CAIN.eNodeB.nic.mac 	cqiDlSpmux2:lteAvg 	2
attr source  cqiDlSpmux2
attr title  "Average cqi Spmux band 2, lteAvg"
attr unit  cqi
scalar CAIN.eNodeB.nic.mac 	cqiDlSpmux2:lteAvg 	2.00299940012
attr source  cqiDlSpmux2
attr title  "Average cqi Spmux band 2, lteAvg"
attr unit  cqi
scalar CAIN.eNodeB.nic.mac 	cqiDlSpmux2:lteAvg 	2
attr source  cqiDlSpmux2
attr title  "Average cqi Spmux band 2, lteAvg"
attr unit  cqi
scalar CAIN.eNodeB.nic.mac 	cqiDlSpmux2:lteAvg 	2
attr source  cqiDlSpmux2
attr title  "Average cqi Spmux band 2, lteAvg"
attr unit  cqi
scalar CAIN.eNodeB.nic.mac 	cqiDlSpmux2:lteAvg 	2
attr source  cqiDlSpmux2
attr title  "Average cqi Spmux band 2, lteAvg"
attr unit  cqi
scalar CAIN.eNodeB.nic.mac 	cqiDlSpmux2:lteAvg 	2
attr source  cqiDlSpmux2
attr title  "Average cqi Spmux band 2, lteAvg"
attr unit  cqi
scalar CAIN.eNodeB.nic.mac 	cqiDlSpmux2:lteAvg 	5.9682063587283
attr source  cqiDlSpmux2
attr title  "Average cqi Spmux band 2, lteAvg"
attr unit  cqi
scalar CAIN.eNodeB.nic.mac 	cqiDlSpmux2:lteAvg 	2
attr source  cqiDlSpmux2
attr title  "Average cqi Spmux band 2, lteAvg"
attr unit  cqi
scalar CAIN.eNodeB.nic.mac 	cqiDlSpmux2:lteAvg 	2
attr source  cqiDlSpmux2
attr title  "Average cqi Spmux band 2, lteAvg"
attr unit  cqi
scalar CAIN.eNodeB.nic.mac 	cqiDlSpmux2:lteAvg 	2
attr source  cqiDlSpmux2
attr title  "Average cqi Spmux band 2, lteAvg"
attr unit  cqi
scalar CAIN.eNodeB.nic.mac 	cqiDlSpmux2:lteAvg 	2
attr source  cqiDlSpmux2
attr title  "Average cqi Spmux band 2, lteAvg"
attr unit  cqi
scalar CAIN.eNodeB.nic.mac 	cqiDlSpmux2:lteAvg 	2
attr source  cqiDlSpmux2
attr title  "Average cqi Spmux band 2, lteAvg"
attr unit  cqi
scalar CAIN.eNodeB.nic.mac 	cqiDlSpmux2:lteAvg 	6.1925614877025
attr source  cqiDlSpmux2
attr title  "Average cqi Spmux band 2, lteAvg"
attr unit  cqi
scalar CAIN.eNodeB.nic.mac 	cqiDlSpmux2:lteAvg 	2
attr source  cqiDlSpmux2
attr title  "Average cqi Spmux band 2, lteAvg"
attr unit  cqi
scalar CAIN.eNodeB.nic.mac 	cqiDlSpmux2:lteAvg 	5
attr source  cqiDlSpmux2
attr title  "Average cqi Spmux band 2, lteAvg"
attr unit  cqi
scalar CAIN.eNodeB.nic.mac 	cqiDlSpmux2:lteAvg 	6
attr source  cqiDlSpmux2
attr title  "Average cqi Spmux band 2, lteAvg"
attr unit  cqi
scalar CAIN.eNodeB.nic.mac 	cqiDlSpmux2:lteAvg 	3.9352129574085
attr source  cqiDlSpmux2
attr title  "Average cqi Spmux band 2, lteAvg"
attr unit  cqi
scalar CAIN.eNodeB.nic.mac 	cqiDlSpmux1:lteAvg 	2
attr source  cqiDlSpmux1
attr title  "Average cqi Spmux band 1, lteAvg"
attr unit  cqi
scalar CAIN.eNodeB.nic.mac 	cqiDlSpmux1:lteAvg 	4
attr source  cqiDlSpmux1
attr title  "Average cqi Spmux band 1, lteAvg"
attr unit  cqi
scalar CAIN.eNodeB.nic.mac 	cqiDlSpmux1:lteAvg 	6
attr source  cqiDlSpmux1
attr title  "Average cqi Spmux band 1, lteAvg"
attr unit  cqi
scalar CAIN.eNodeB.nic.mac 	cqiDlSpmux1:lteAvg 	2
attr source  cqiDlSpmux1
attr title  "Average cqi Spmux band 1, lteAvg"
attr unit  cqi
scalar CAIN.eNodeB.nic.mac 	cqiDlSpmux1:lteAvg 	2.0065986802639
attr source  cqiDlSpmux1
attr title  "Average cqi Spmux band 1, lteAvg"
attr unit  cqi
scalar CAIN.eNodeB.nic.mac 	cqiDlSpmux1:lteAvg 	2
attr source  cqiDlSpmux1
attr title  "Average cqi Spmux band 1, lteAvg"
attr unit  cqi
scalar CAIN.eNodeB.nic.mac 	cqiDlSpmux1:lteAvg 	5
attr source  cqiDlSpmux1
attr title  "Average cqi Spmux band 1, lteAvg"
attr unit  cqi
scalar CAIN.eNodeB.nic.mac 	cqiDlSpmux1:lteAvg 	2
attr source  cqiDlSpmux1
attr title  "Average cqi Spmux band 1, lteAvg"
attr unit  cqi
scalar CAIN.eNodeB.nic.mac 	cqiDlSpmux1:lteAvg 	2
attr source  cqiDlSpmux1
attr title  "Average cqi Spmux band 1, lteAvg"
attr unit  cqi
scalar CAIN.eNodeB.nic.mac 	cqiDlSpmux1:lteAvg 	5.9814037192561
attr source  cqiDlSpmux1
attr title  "Average cqi Spmux band 1, lteAvg"
attr unit  cqi
scalar CAIN.eNodeB.nic.mac 	cqiDlSpmux1:lteAvg 	2
attr source  cqiDlSpmux1
attr title  "Average cqi Spmux band 1, lteAvg"
attr unit  cqi
scalar CAIN.eNodeB.nic.mac 	cqiDlSpmux1:lteAvg 	2
attr source  cqiDlSpmux1
attr title  "Average cqi Spmux band 1, lteAvg"
attr unit  cqi
scalar CAIN.eNodeB.nic.mac 	cqiDlSpmux1:lteAvg 	2
attr source  cqiDlSpmux1
attr title  "Average cqi Spmux band 1, lteAvg"
attr unit  cqi
scalar CAIN.eNodeB.nic.mac 	cqiDlSpmux1:lteAvg 	2
attr source  cqiDlSpmux1
attr title  "Average cqi Spmux band 1, lteAvg"
attr unit  cqi
scalar CAIN.eNodeB.nic.mac 	cqiDlSpmux1:lteAvg 	2
attr source  cqiDlSpmux1
attr title  "Average cqi Spmux band 1, lteAvg"
attr unit  cqi
scalar CAIN.eNodeB.nic.mac 	cqiDlSpmux1:lteAvg 	7.1037792441512
attr source  cqiDlSpmux1
attr title  "Average cqi Spmux band 1, lteAvg"
attr unit  cqi
scalar CAIN.eNodeB.nic.mac 	cqiDlSpmux1:lteAvg 	4
attr source  cqiDlSpmux1
attr title  "Average cqi Spmux band 1, lteAvg"
attr unit  cqi
scalar CAIN.eNodeB.nic.mac 	cqiDlSpmux1:lteAvg 	4
attr source  cqiDlSpmux1
attr title  "Average cqi Spmux band 1, lteAvg"
attr unit  cqi
scalar CAIN.eNodeB.nic.mac 	cqiDlSpmux1:lteAvg 	2
attr source  cqiDlSpmux1
attr title  "Average cqi Spmux band 1, lteAvg"
attr unit  cqi
scalar CAIN.eNodeB.nic.mac 	cqiDlSpmux1:lteAvg 	2.0263947210558
attr source  cqiDlSpmux1
attr title  "Average cqi Spmux band 1, lteAvg"
attr unit  cqi
scalar CAIN.eNodeB.nic.mac 	cqiDlSpmux0:lteAvg 	3
attr source  cqiDlSpmux0
attr title  "Average cqi Spmux band 0, lteAvg"
attr unit  cqi
scalar CAIN.eNodeB.nic.mac 	cqiDlSpmux0:lteAvg 	2
attr source  cqiDlSpmux0
attr title  "Average cqi Spmux band 0, lteAvg"
attr unit  cqi
scalar CAIN.eNodeB.nic.mac 	cqiDlSpmux0:lteAvg 	2
attr source  cqiDlSpmux0
attr title  "Average cqi Spmux band 0, lteAvg"
attr unit  cqi
scalar CAIN.eNodeB.nic.mac 	cqiDlSpmux0:lteAvg 	2
attr source  cqiDlSpmux0
attr title  "Average cqi Spmux band 0, lteAvg"
attr unit  cqi
scalar CAIN.eNodeB.nic.mac 	cqiDlSpmux0:lteAvg 	2.0065986802639
attr source  cqiDlSpmux0
attr title  "Average cqi Spmux band 0, lteAvg"
attr unit  cqi
scalar CAIN.eNodeB.nic.mac 	cqiDlSpmux0:lteAvg 	2
attr source  cqiDlSpmux0
attr title  "Average cqi Spmux band 0, lteAvg"
attr unit  cqi
scalar CAIN.eNodeB.nic.mac 	cqiDlSpmux0:lteAvg 	5
attr source  cqiDlSpmux0
attr title  "Average cqi Spmux band 0, lteAvg"
attr unit  cqi
scalar CAIN.eNodeB.nic.mac 	cqiDlSpmux0:lteAvg 	2
attr source  cqiDlSpmux0
attr title  "Average cqi Spmux band 0, lteAvg"
attr unit  cqi
scalar CAIN.eNodeB.nic.mac 	cqiDlSpmux0:lteAvg 	5
attr source  cqiDlSpmux0
attr title  "Average cqi Spmux band 0, lteAvg"
attr unit  cqi
scalar CAIN.eNodeB.nic.mac 	cqiDlSpmux0:lteAvg 	6.9298140371926
attr source  cqiDlSpmux0
attr title  "Average cqi Spmux band 0, lteAvg"
attr unit  cqi
scalar CAIN.eNodeB.nic.mac 	cqiDlSpmux0:lteAvg 	2
attr source  cqiDlSpmux0
attr title  "Average cqi Spmux band 0, lteAvg"
attr unit  cqi
scalar CAIN.eNodeB.nic.mac 	cqiDlSpmux0:lteAvg 	2
attr source  cqiDlSpmux0
attr title  "Average cqi Spmux band 0, lteAvg"
attr unit  cqi
scalar CAIN.eNodeB.nic.mac 	cqiDlSpmux0:lteAvg 	2
attr source  cqiDlSpmux0
attr title  "Average cqi Spmux band 0, lteAvg"
attr unit  cqi
scalar CAIN.eNodeB.nic.mac 	cqiDlSpmux0:lteAvg 	2
attr source  cqiDlSpmux0
attr title  "Average cqi Spmux band 0, lteAvg"
attr unit  cqi
scalar CAIN.eNodeB.nic.mac 	cqiDlSpmux0:lteAvg 	2
attr source  cqiDlSpmux0
attr title  "Average cqi Spmux band 0, lteAvg"
attr unit  cqi
scalar CAIN.eNodeB.nic.mac 	cqiDlSpmux0:lteAvg 	7.1877624475105
attr source  cqiDlSpmux0
attr title  "Average cqi Spmux band 0, lteAvg"
attr unit  cqi
scalar CAIN.eNodeB.nic.mac 	cqiDlSpmux0:lteAvg 	4
attr source  cqiDlSpmux0
attr title  "Average cqi Spmux band 0, lteAvg"
attr unit  cqi
scalar CAIN.eNodeB.nic.mac 	cqiDlSpmux0:lteAvg 	5
attr source  cqiDlSpmux0
attr title  "Average cqi Spmux band 0, lteAvg"
attr unit  cqi
scalar CAIN.eNodeB.nic.mac 	cqiDlSpmux0:lteAvg 	4
attr source  cqiDlSpmux0
attr title  "Average cqi Spmux band 0, lteAvg"
attr unit  cqi
scalar CAIN.eNodeB.nic.mac 	cqiDlSpmux0:lteAvg 	2.0311937612478
attr source  cqiDlSpmux0
attr title  "Average cqi Spmux band 0, lteAvg"
attr unit  cqi
scalar CAIN.eNodeB.nic.mac 	cqiDlSiso4:lteAvg 	3
attr source  cqiDlSiso4
attr title  "Average cqi siso band 4, lteAvg"
attr unit  cqi
scalar CAIN.eNodeB.nic.mac 	cqiDlSiso4:lteAvg 	2
attr source  cqiDlSiso4
attr title  "Average cqi siso band 4, lteAvg"
attr unit  cqi
scalar CAIN.eNodeB.nic.mac 	cqiDlSiso4:lteAvg 	5
attr source  cqiDlSiso4
attr title  "Average cqi siso band 4, lteAvg"
attr unit  cqi
scalar CAIN.eNodeB.nic.mac 	cqiDlSiso4:lteAvg 	5
attr source  cqiDlSiso4
attr title  "Average cqi siso band 4, lteAvg"
attr unit  cqi
scalar CAIN.eNodeB.nic.mac 	cqiDlSiso4:lteAvg 	2.001799640072
attr source  cqiDlSiso4
attr title  "Average cqi siso band 4, lteAvg"
attr unit  cqi
scalar CAIN.eNodeB.nic.mac 	cqiDlSiso4:lteAvg 	2
attr source  cqiDlSiso4
attr title  "Average cqi siso band 4, lteAvg"
attr unit  cqi
scalar CAIN.eNodeB.nic.mac 	cqiDlSiso4:lteAvg 	2
attr source  cqiDlSiso4
attr title  "Average cqi siso band 4, lteAvg"
attr unit  cqi
scalar CAIN.eNodeB.nic.mac 	cqiDlSiso4:lteAvg 	2
attr source  cqiDlSiso4
attr title  "Average cqi siso band 4, lteAvg"
attr unit  cqi
scalar CAIN.eNodeB.nic.mac 	cqiDlSiso4:lteAvg 	6
attr source  cqiDlSiso4
attr title  "Average cqi siso band 4, lteAvg"
attr unit  cqi
scalar CAIN.eNodeB.nic.mac 	cqiDlSiso4:lteAvg 	8.8920215956809
attr source  cqiDlSiso4
attr title  "Average cqi siso band 4, lteAvg"
attr unit  cqi
scalar CAIN.eNodeB.nic.mac 	cqiDlSiso4:lteAvg 	2
attr source  cqiDlSiso4
attr title  "Average cqi siso band 4, lteAvg"
attr unit  cqi
scalar CAIN.eNodeB.nic.mac 	cqiDlSiso4:lteAvg 	2
attr source  cqiDlSiso4
attr title  "Average cqi siso band 4, lteAvg"
attr unit  cqi
scalar CAIN.eNodeB.nic.mac 	cqiDlSiso4:lteAvg 	2
attr source  cqiDlSiso4
attr title  "Average cqi siso band 4, lteAvg"
attr unit  cqi
scalar CAIN.eNodeB.nic.mac 	cqiDlSiso4:lteAvg 	2
attr source  cqiDlSiso4
attr title  "Average cqi siso band 4, lteAvg"
attr unit  cqi
scalar CAIN.eNodeB.nic.mac 	cqiDlSiso4:lteAvg 	3
attr source  cqiDlSiso4
attr title  "Average cqi siso band 4, lteAvg"
attr unit  cqi
scalar CAIN.eNodeB.nic.mac 	cqiDlSiso4:lteAvg 	14.900419916017
attr source  cqiDlSiso4
attr title  "Average cqi siso band 4, lteAvg"
attr unit  cqi
scalar CAIN.eNodeB.nic.mac 	cqiDlSiso4:lteAvg 	3
attr source  cqiDlSiso4
attr title  "Average cqi siso band 4, lteAvg"
attr unit  cqi
scalar CAIN.eNodeB.nic.mac 	cqiDlSiso4:lteAvg 	2
attr source  cqiDlSiso4
attr title  "Average cqi siso band 4, lteAvg"
attr unit  cqi
scalar CAIN.eNodeB.nic.mac 	cqiDlSiso4:lteAvg 	3
attr source  cqiDlSiso4
attr title  "Average cqi siso band 4, lteAvg"
attr unit  cqi
scalar CAIN.eNodeB.nic.mac 	cqiDlSiso4:lteAvg 	2.0137972405519
attr source  cqiDlSiso4
[...]
attr interpolationmode  none
attr source  sentPacketToLowerLayer
scalar CAIN.ueD2DTx[18].nic.pdcpRrc 	sentPacketToLowerLayer:sum(packetBytes) 	135
attr interpolationmode  none
attr source  sentPacketToLowerLayer
scalar CAIN.ueD2DTx[18].nic.pdcpRrc 	sentPacketToUpperLayer:count 	0
attr interpolationmode  none
attr source  sentPacketToUpperLayer
scalar CAIN.ueD2DTx[18].nic.pdcpRrc 	sentPacketToUpperLayer:sum(packetBytes) 	0
attr interpolationmode  none
attr source  sentPacketToUpperLayer
scalar CAIN.ueD2DTx[18].nic.pdcpRrc 	receivedPacketFromLowerLayer:count 	0
attr interpolationmode  none
attr source  receivedPacketFromLowerLayer
scalar CAIN.ueD2DTx[18].nic.pdcpRrc 	receivedPacketFromLowerLayer:sum(packetBytes) 	0
attr interpolationmode  none
attr source  receivedPacketFromLowerLayer
scalar CAIN.ueD2DTx[18].nic.pdcpRrc 	receivedPacketFromUpperLayer:count 	3
attr interpolationmode  none
attr source  receivedPacketFromUpperLayer
scalar CAIN.ueD2DTx[18].nic.pdcpRrc 	receivedPacketFromUpperLayer:sum(packetBytes) 	132
attr interpolationmode  none
attr source  receivedPacketFromUpperLayer
scalar CAIN.ueD2DTx[18].nic.mac 	racServedDevsSignal:count 	0
attr interpolationmode  none
attr title  "# of devices served on rac arriavall, count"
scalar CAIN.ueD2DTx[18].nic.mac 	racServedDevsSignal:max 	-nan
attr interpolationmode  none
attr title  "# of devices served on rac arriavall, max"
scalar CAIN.ueD2DTx[18].nic.mac 	racServedDevsSignal:last 	-nan
attr interpolationmode  none
attr title  "# of devices served on rac arriavall, last"
scalar CAIN.ueD2DTx[18].nic.mac 	racDistanceSignal:count 	0
attr interpolationmode  none
attr title  "Rac distance to enb, count"
scalar CAIN.ueD2DTx[18].nic.mac 	racpkt:count 	0
attr interpolationmode  none
attr title  "eNB received racpkt message, count"
scalar CAIN.ueD2DTx[18].nic.mac 	TotalServedDevs:count 	0
attr interpolationmode  none
attr title  "# of total devices served, count"
scalar CAIN.ueD2DTx[18].nic.mac 	TotalServedDevs:max 	-nan
attr interpolationmode  none
attr title  "# of total devices served, max"
scalar CAIN.ueD2DTx[18].nic.mac 	TotalServedDevs:last 	-nan
attr interpolationmode  none
attr title  "# of total devices served, last"
scalar CAIN.ueD2DTx[18].nic.mac 	ServedHopDevs:count 	0
attr interpolationmode  none
attr title  "# of devices served on hop forwarding, count"
scalar CAIN.ueD2DTx[18].nic.mac 	ServedHopDevs:max 	-nan
attr interpolationmode  none
attr title  "# of devices served on hop forwarding, max"
scalar CAIN.ueD2DTx[18].nic.mac 	ServedHopDevs:last 	-nan
attr interpolationmode  none
attr title  "# of devices served on hop forwarding, last"
scalar CAIN.ueD2DTx[18].nic.mac 	ServedDevs:count 	0
attr interpolationmode  none
attr title  "# of devices served on cain forwarding, count"
scalar CAIN.ueD2DTx[18].nic.mac 	ServedDevs:max 	-nan
attr interpolationmode  none
attr title  "# of devices served on cain forwarding, max"
scalar CAIN.ueD2DTx[18].nic.mac 	ServedDevs:last 	-nan
attr interpolationmode  none
attr title  "# of devices served on cain forwarding, last"
scalar CAIN.ueD2DTx[18].nic.mac 	HopDistanceSignal:count 	0
attr interpolationmode  none
attr title  "Distance to enb with hop forwarding, count"
scalar CAIN.ueD2DTx[18].nic.mac 	DistanceSignal:count 	0
attr interpolationmode  none
attr title  "Distance to enb, count"
scalar CAIN.ueD2DTx[18].nic.mac 	CainHopMessageSent:count 	1996
attr interpolationmode  none
attr title  "# of Sent CAIN hop message, count"
scalar CAIN.ueD2DTx[18].nic.mac 	CainMessageSent:count 	0
attr interpolationmode  none
attr title  "# of Sent CAIN message, count"
scalar CAIN.ueD2DTx[18].nic.mac 	DropedHopMessage:count 	0
attr interpolationmode  none
attr title  "Droped Hop CAIN message due to RB not available, count"
scalar CAIN.ueD2DTx[18].nic.mac 	DropedCainMessage:count 	0
attr interpolationmode  none
attr title  "Droped CAIN message due to RB not available, count"
scalar CAIN.ueD2DTx[18].nic.mac 	CainHopMessage:count 	0
attr interpolationmode  none
attr title  "eNB received CAIN hop message, count"
scalar CAIN.ueD2DTx[18].nic.mac 	CainMessage:count 	0
attr interpolationmode  none
attr title  "eNB received CAIN message, count"
scalar CAIN.ueD2DTx[18].nic.mac 	measuredItbs:mean 	-nan
attr source  measuredItbs
attr title  "TBS index, mean"
attr unit  ""
scalar CAIN.ueD2DTx[18].nic.mac 	harqErrorRate_4th_D2D:mean 	-nan
attr source  harqErrorRate_4th_D2D
attr title  "Harq Error Rate D2D, mean"
attr unit  ""
scalar CAIN.ueD2DTx[18].nic.mac 	harqErrorRate_4th_Dl:mean 	-nan
attr source  harqErrorRate_4th_Dl
attr title  "Harq Error Rate Dl, mean"
attr unit  ""
scalar CAIN.ueD2DTx[18].nic.mac 	harqErrorRate_4th_Ul:mean 	-nan
attr source  harqErrorRate_4th_Ul
attr title  "Harq Error Rate Dl, mean"
attr unit  ""
scalar CAIN.ueD2DTx[18].nic.mac 	harqErrorRate_3rd_D2D:mean 	-nan
attr source  harqErrorRate_3rd_D2D
attr title  "Harq Error Rate D2D, mean"
attr unit  ""
scalar CAIN.ueD2DTx[18].nic.mac 	harqErrorRate_3rd_Dl:mean 	-nan
attr source  harqErrorRate_3rd_Dl
attr title  "Harq Error Rate Dl, mean"
attr unit  ""
scalar CAIN.ueD2DTx[18].nic.mac 	harqErrorRate_3rd_Ul:mean 	-nan
attr source  harqErrorRate_3rd_Ul
attr title  "Harq Error Rate Dl, mean"
attr unit  ""
scalar CAIN.ueD2DTx[18].nic.mac 	harqErrorRate_2nd_D2D:mean 	-nan
attr source  harqErrorRate_2nd_D2D
attr title  "Harq Error Rate D2D, mean"
attr unit  ""
scalar CAIN.ueD2DTx[18].nic.mac 	harqErrorRate_2nd_Dl:mean 	-nan
attr source  harqErrorRate_2nd_Dl
attr title  "Harq Error Rate Dl, mean"
attr unit  ""
scalar CAIN.ueD2DTx[18].nic.mac 	harqErrorRate_2nd_Ul:mean 	-nan
attr source  harqErrorRate_2nd_Ul
attr title  "Harq Error Rate Dl, mean"
attr unit  ""
scalar CAIN.ueD2DTx[18].nic.mac 	harqErrorRate_1st_D2D:mean 	-nan
attr source  harqErrorRate_1st_D2D
attr title  "Harq Error Rate D2D, mean"
attr unit  ""
scalar CAIN.ueD2DTx[18].nic.mac 	harqErrorRate_1st_Dl:mean 	-nan
attr source  harqErrorRate_1st_Dl
attr title  "Harq Error Rate Dl, mean"
attr unit  ""
scalar CAIN.ueD2DTx[18].nic.mac 	harqErrorRate_1st_Ul:mean 	-nan
attr source  harqErrorRate_1st_Ul
attr title  "Harq Error Rate Dl, mean"
attr unit  ""
scalar CAIN.ueD2DTx[18].nic.mac 	harqErrorRateD2D:mean 	-nan
attr source  harqErrorRateD2D
attr title  "Harq Error Rate D2D, mean"
attr unit  ""
scalar CAIN.ueD2DTx[18].nic.mac 	harqErrorRateDl:mean 	-nan
attr source  harqErrorRateDl
attr title  "Harq Error Rate Dl, mean"
attr unit  ""
scalar CAIN.ueD2DTx[18].nic.mac 	harqErrorRateUl:mean 	-nan
attr source  harqErrorRateUl
attr title  "Harq Error Rate Dl, mean"
attr unit  ""
scalar CAIN.ueD2DTx[18].nic.mac 	macPacketLossD2D:mean 	-nan
attr source  macPacketLossD2D
attr title  "Mac Packet Loss D2D, mean"
attr unit  ""
scalar CAIN.ueD2DTx[18].nic.mac 	macPacketLossDl:mean 	-nan
attr source  macPacketLossDl
attr title  "Mac Packet Loss, mean"
attr unit  ""
scalar CAIN.ueD2DTx[18].nic.mac 	macPacketLossUl:mean 	-nan
attr source  macPacketLossUl
attr title  "Mac Packet Loss, mean"
attr unit  ""
scalar CAIN.ueD2DTx[18].nic.mac 	macCellPacketLossD2D:mean 	-nan
attr source  macCellPacketLossD2D
attr title  "Mac Cell Packet Loss D2D, mean"
attr unit  ""
scalar CAIN.ueD2DTx[18].nic.mac 	macCellPacketLossUl:mean 	-nan
attr source  macCellPacketLossUl
attr title  "Mac Cell Packet Loss, mean"
attr unit  ""
scalar CAIN.ueD2DTx[18].nic.mac 	macCellPacketLossDl:mean 	-nan
attr source  macCellPacketLossDl
attr title  "Mac Cell Packet Loss, mean"
attr unit  ""
scalar CAIN.ueD2DTx[18].nic.mac 	sentPacketToLowerLayer:count 	1996
attr interpolationmode  none
attr source  sentPacketToLowerLayer
scalar CAIN.ueD2DTx[18].nic.mac 	sentPacketToLowerLayer:sum(packetBytes) 	0
attr interpolationmode  none
attr source  sentPacketToLowerLayer
scalar CAIN.ueD2DTx[18].nic.mac 	sentPacketToUpperLayer:count 	0
attr interpolationmode  none
attr source  sentPacketToUpperLayer
scalar CAIN.ueD2DTx[18].nic.mac 	sentPacketToUpperLayer:sum(packetBytes) 	0
attr interpolationmode  none
attr source  sentPacketToUpperLayer
scalar CAIN.ueD2DTx[18].nic.mac 	receivedPacketFromLowerLayer:count 	0
attr interpolationmode  none
attr source  receivedPacketFromLowerLayer
scalar CAIN.ueD2DTx[18].nic.mac 	receivedPacketFromLowerLayer:sum(packetBytes) 	0
attr interpolationmode  none
attr source  receivedPacketFromLowerLayer
scalar CAIN.ueD2DTx[18].nic.mac 	receivedPacketFromUpperLayer:count 	3
attr interpolationmode  none
attr source  receivedPacketFromUpperLayer
scalar CAIN.ueD2DTx[18].nic.mac 	receivedPacketFromUpperLayer:sum(packetBytes) 	135
attr interpolationmode  none
attr source  receivedPacketFromUpperLayer
scalar CAIN.ueD2DTx[18].networkLayer.arp 	failedARPResolution:count 	0
attr title  "ARP failed resolutions, count"
scalar CAIN.ueD2DTx[18].networkLayer.arp 	completedARPResolution:count 	0
attr title  "ARP completed resolutions, count"
scalar CAIN.ueD2DTx[18].networkLayer.arp 	initiatedARPResolution:count 	0
attr title  "ARP initiated resolutions, count"
scalar CAIN.ueD2DTx[18].networkLayer.arp 	sentReply:count 	0
attr title  "ARP replies sent, count"
scalar CAIN.ueD2DTx[18].networkLayer.arp 	sentReq:count 	0
attr title  "ARP request sent, count"
scalar CAIN.ueD2DTx[19].tcpApp[0] 	bytesRcvd 	0
scalar CAIN.ueD2DTx[19].tcpApp[0] 	bytesSent 	0
scalar CAIN.ueD2DTx[19].tcpApp[0] 	rcvdPk:count 	0
attr interpolationmode  none
attr source  rcvdPk
attr title  "packets received, count"
scalar CAIN.ueD2DTx[19].tcpApp[0] 	rcvdPk:sum(packetBytes) 	0
attr interpolationmode  none
attr source  rcvdPk
attr title  "packets received, sum(packetBytes)"
statistic CAIN.ueD2DTx[19].tcpApp[0] 	endToEndDelay:histogram
field count 0
field mean -nan
field stddev -nan
field sum 0
field sqrsum 0
field min -nan
field max -nan
attr interpolationmode  none
attr source  messageAge(rcvdPk)
attr title  "end-to-end delay, histogram"
attr unit  s
bin	-INF	0
bin	-0.5	0
bin	-0.46666666666667	0
bin	-0.43333333333333	0
bin	-0.4	0
bin	-0.36666666666667	0
bin	-0.33333333333333	0
bin	-0.3	0
bin	-0.26666666666667	0
bin	-0.23333333333333	0
bin	-0.2	0
bin	-0.16666666666667	0
bin	-0.13333333333333	0
bin	-0.1	0
bin	-0.066666666666667	0
bin	-0.033333333333333	0
bin	0	0
bin	0.033333333333333	0
bin	0.066666666666667	0
bin	0.1	0
bin	0.13333333333333	0
bin	0.16666666666667	0
bin	0.2	0
bin	0.23333333333333	0
bin	0.26666666666667	0
bin	0.3	0
bin	0.33333333333333	0
bin	0.36666666666667	0
bin	0.4	0
bin	0.43333333333333	0
bin	0.46666666666667	0
bin	0.5	0
scalar CAIN.ueD2DTx[19].tcpApp[0] 	sentPk:count 	0
attr interpolationmode  none
attr source  sentPk
attr title  "packets sent, count"
scalar CAIN.ueD2DTx[19].tcpApp[0] 	sentPk:sum(packetBytes) 	0
attr interpolationmode  none
attr source  sentPk
attr title  "packets sent, sum(packetBytes)"
scalar CAIN.ueD2DTx[19].nic.pdcpRrc 	sentPacketToLowerLayer:count 	3
attr interpolationmode  none
attr source  sentPacketToLowerLayer
scalar CAIN.ueD2DTx[19].nic.pdcpRrc 	sentPacketToLowerLayer:sum(packetBytes) 	135
attr interpolationmode  none
attr source  sentPacketToLowerLayer
scalar CAIN.ueD2DTx[19].nic.pdcpRrc 	sentPacketToUpperLayer:count 	0
attr interpolationmode  none
attr source  sentPacketToUpperLayer
scalar CAIN.ueD2DTx[19].nic.pdcpRrc 	sentPacketToUpperLayer:sum(packetBytes) 	0
attr interpolationmode  none
attr source  sentPacketToUpperLayer
scalar CAIN.ueD2DTx[19].nic.pdcpRrc 	receivedPacketFromLowerLayer:count 	0
attr interpolationmode  none
attr source  receivedPacketFromLowerLayer
scalar CAIN.ueD2DTx[19].nic.pdcpRrc 	receivedPacketFromLowerLayer:sum(packetBytes) 	0
attr interpolationmode  none
attr source  receivedPacketFromLowerLayer
scalar CAIN.ueD2DTx[19].nic.pdcpRrc 	receivedPacketFromUpperLayer:count 	3
attr interpolationmode  none
attr source  receivedPacketFromUpperLayer
scalar CAIN.ueD2DTx[19].nic.pdcpRrc 	receivedPacketFromUpperLayer:sum(packetBytes) 	132
attr interpolationmode  none
attr source  receivedPacketFromUpperLayer
scalar CAIN.ueD2DTx[19].nic.mac 	racServedDevsSignal:count 	0
attr interpolationmode  none
attr title  "# of devices served on rac arriavall, count"
scalar CAIN.ueD2DTx[19].nic.mac 	racServedDevsSignal:max 	-nan
attr interpolationmode  none
attr title  "# of devices served on rac arriavall, max"
scalar CAIN.ueD2DTx[19].nic.mac 	racServedDevsSignal:last 	-nan
attr interpolationmode  none
attr title  "# of devices served on rac arriavall, last"
scalar CAIN.ueD2DTx[19].nic.mac 	racDistanceSignal:count 	0
attr interpolationmode  none
attr title  "Rac distance to enb, count"
scalar CAIN.ueD2DTx[19].nic.mac 	racpkt:count 	0
attr interpolationmode  none
attr title  "eNB received racpkt message, count"
scalar CAIN.ueD2DTx[19].nic.mac 	TotalServedDevs:count 	0
attr interpolationmode  none
attr title  "# of total devices served, count"
scalar CAIN.ueD2DTx[19].nic.mac 	TotalServedDevs:max 	-nan
attr interpolationmode  none
attr title  "# of total devices served, max"
scalar CAIN.ueD2DTx[19].nic.mac 	TotalServedDevs:last 	-nan
attr interpolationmode  none
attr title  "# of total devices served, last"
scalar CAIN.ueD2DTx[19].nic.mac 	ServedHopDevs:count 	0
attr interpolationmode  none
attr title  "# of devices served on hop forwarding, count"
scalar CAIN.ueD2DTx[19].nic.mac 	ServedHopDevs:max 	-nan
attr interpolationmode  none
attr title  "# of devices served on hop forwarding, max"
scalar CAIN.ueD2DTx[19].nic.mac 	ServedHopDevs:last 	-nan
attr interpolationmode  none
attr title  "# of devices served on hop forwarding, last"
scalar CAIN.ueD2DTx[19].nic.mac 	ServedDevs:count 	0
attr interpolationmode  none
attr title  "# of devices served on cain forwarding, count"
scalar CAIN.ueD2DTx[19].nic.mac 	ServedDevs:max 	-nan
attr interpolationmode  none
attr title  "# of devices served on cain forwarding, max"
scalar CAIN.ueD2DTx[19].nic.mac 	ServedDevs:last 	-nan
attr interpolationmode  none
attr title  "# of devices served on cain forwarding, last"
scalar CAIN.ueD2DTx[19].nic.mac 	HopDistanceSignal:count 	0
attr interpolationmode  none
attr title  "Distance to enb with hop forwarding, count"
scalar CAIN.ueD2DTx[19].nic.mac 	DistanceSignal:count 	0
attr interpolationmode  none
attr title  "Distance to enb, count"
scalar CAIN.ueD2DTx[19].nic.mac 	CainHopMessageSent:count 	1981
attr interpolationmode  none
attr title  "# of Sent CAIN hop message, count"
scalar CAIN.ueD2DTx[19].nic.mac 	CainMessageSent:count 	0
attr interpolationmode  none
attr title  "# of Sent CAIN message, count"
scalar CAIN.ueD2DTx[19].nic.mac 	DropedHopMessage:count 	0
attr interpolationmode  none
attr title  "Droped Hop CAIN message due to RB not available, count"
scalar CAIN.ueD2DTx[19].nic.mac 	DropedCainMessage:count 	0
attr interpolationmode  none
attr title  "Droped CAIN message due to RB not available, count"
scalar CAIN.ueD2DTx[19].nic.mac 	CainHopMessage:count 	0
attr interpolationmode  none
attr title  "eNB received CAIN hop message, count"
scalar CAIN.ueD2DTx[19].nic.mac 	CainMessage:count 	0
attr interpolationmode  none
attr title  "eNB received CAIN message, count"
scalar CAIN.ueD2DTx[19].nic.mac 	measuredItbs:mean 	-nan
attr source  measuredItbs
attr title  "TBS index, mean"
attr unit  ""
scalar CAIN.ueD2DTx[19].nic.mac 	harqErrorRate_4th_D2D:mean 	-nan
attr source  harqErrorRate_4th_D2D
attr title  "Harq Error Rate D2D, mean"
attr unit  ""
scalar CAIN.ueD2DTx[19].nic.mac 	harqErrorRate_4th_Dl:mean 	-nan
attr source  harqErrorRate_4th_Dl
attr title  "Harq Error Rate Dl, mean"
attr unit  ""
scalar CAIN.ueD2DTx[19].nic.mac 	harqErrorRate_4th_Ul:mean 	-nan
attr source  harqErrorRate_4th_Ul
attr title  "Harq Error Rate Dl, mean"
attr unit  ""
scalar CAIN.ueD2DTx[19].nic.mac 	harqErrorRate_3rd_D2D:mean 	-nan
attr source  harqErrorRate_3rd_D2D
attr title  "Harq Error Rate D2D, mean"
attr unit  ""
scalar CAIN.ueD2DTx[19].nic.mac 	harqErrorRate_3rd_Dl:mean 	-nan
attr source  harqErrorRate_3rd_Dl
attr title  "Harq Error Rate Dl, mean"
attr unit  ""
scalar CAIN.ueD2DTx[19].nic.mac 	harqErrorRate_3rd_Ul:mean 	-nan
attr source  harqErrorRate_3rd_Ul
attr title  "Harq Error Rate Dl, mean"
attr unit  ""
scalar CAIN.ueD2DTx[19].nic.mac 	harqErrorRate_2nd_D2D:mean 	-nan
attr source  harqErrorRate_2nd_D2D
attr title  "Harq Error Rate D2D, mean"
attr unit  ""
scalar CAIN.ueD2DTx[19].nic.mac 	harqErrorRate_2nd_Dl:mean 	-nan
attr source  harqErrorRate_2nd_Dl
attr title  "Harq Error Rate Dl, mean"
attr unit  ""
scalar CAIN.ueD2DTx[19].nic.mac 	harqErrorRate_2nd_Ul:mean 	-nan
attr source  harqErrorRate_2nd_Ul
attr title  "Harq Error Rate Dl, mean"
attr unit  ""
scalar CAIN.ueD2DTx[19].nic.mac 	harqErrorRate_1st_D2D:mean 	-nan
attr source  harqErrorRate_1st_D2D
attr title  "Harq Error Rate D2D, mean"
attr unit  ""
scalar CAIN.ueD2DTx[19].nic.mac 	harqErrorRate_1st_Dl:mean 	-nan
attr source  harqErrorRate_1st_Dl
attr title  "Harq Error Rate Dl, mean"
attr unit  ""
scalar CAIN.ueD2DTx[19].nic.mac 	harqErrorRate_1st_Ul:mean 	-nan
attr source  harqErrorRate_1st_Ul
attr title  "Harq Error Rate Dl, mean"
attr unit  ""
scalar CAIN.ueD2DTx[19].nic.mac 	harqErrorRateD2D:mean 	-nan
attr source  harqErrorRateD2D
attr title  "Harq Error Rate D2D, mean"
attr unit  ""
scalar CAIN.ueD2DTx[19].nic.mac 	harqErrorRateDl:mean 	-nan
attr source  harqErrorRateDl
attr title  "Harq Error Rate Dl, mean"
attr unit  ""
scalar CAIN.ueD2DTx[19].nic.mac 	harqErrorRateUl:mean 	-nan
attr source  harqErrorRateUl
attr title  "Harq Error Rate Dl, mean"
attr unit  ""
scalar CAIN.ueD2DTx[19].nic.mac 	macPacketLossD2D:mean 	-nan
attr source  macPacketLossD2D
attr title  "Mac Packet Loss D2D, mean"
attr unit  ""
scalar CAIN.ueD2DTx[19].nic.mac 	macPacketLossDl:mean 	-nan
attr source  macPacketLossDl
attr title  "Mac Packet Loss, mean"
attr unit  ""
scalar CAIN.ueD2DTx[19].nic.mac 	macPacketLossUl:mean 	-nan
attr source  macPacketLossUl
attr title  "Mac Packet Loss, mean"
attr unit  ""
scalar CAIN.ueD2DTx[19].nic.mac 	macCellPacketLossD2D:mean 	-nan
attr source  macCellPacketLossD2D
attr title  "Mac Cell Packet Loss D2D, mean"
attr unit  ""
scalar CAIN.ueD2DTx[19].nic.mac 	macCellPacketLossUl:mean 	-nan
attr source  macCellPacketLossUl
attr title  "Mac Cell Packet Loss, mean"
attr unit  ""
scalar CAIN.ueD2DTx[19].nic.mac 	macCellPacketLossDl:mean 	-nan
attr source  macCellPacketLossDl
attr title  "Mac Cell Packet Loss, mean"
attr unit  ""
scalar CAIN.ueD2DTx[19].nic.mac 	sentPacketToLowerLayer:count 	1981
attr interpolationmode  none
attr source  sentPacketToLowerLayer
scalar CAIN.ueD2DTx[19].nic.mac 	sentPacketToLowerLayer:sum(packetBytes) 	0
attr interpolationmode  none
attr source  sentPacketToLowerLayer
scalar CAIN.ueD2DTx[19].nic.mac 	sentPacketToUpperLayer:count 	0
attr interpolationmode  none
attr source  sentPacketToUpperLayer
scalar CAIN.ueD2DTx[19].nic.mac 	sentPacketToUpperLayer:sum(packetBytes) 	0
attr interpolationmode  none
attr source  sentPacketToUpperLayer
scalar CAIN.ueD2DTx[19].nic.mac 	receivedPacketFromLowerLayer:count 	0
attr interpolationmode  none
attr source  receivedPacketFromLowerLayer
scalar CAIN.ueD2DTx[19].nic.mac 	receivedPacketFromLowerLayer:sum(packetBytes) 	0
attr interpolationmode  none
attr source  receivedPacketFromLowerLayer
scalar CAIN.ueD2DTx[19].nic.mac 	receivedPacketFromUpperLayer:count 	3
attr interpolationmode  none
attr source  receivedPacketFromUpperLayer
scalar CAIN.ueD2DTx[19].nic.mac 	receivedPacketFromUpperLayer:sum(packetBytes) 	135
attr interpolationmode  none
attr source  receivedPacketFromUpperLayer
scalar CAIN.ueD2DTx[19].networkLayer.arp 	failedARPResolution:count 	0
attr title  "ARP failed resolutions, count"
scalar CAIN.ueD2DTx[19].networkLayer.arp 	completedARPResolution:count 	0
attr title  "ARP completed resolutions, count"
scalar CAIN.ueD2DTx[19].networkLayer.arp 	initiatedARPResolution:count 	0
attr title  "ARP initiated resolutions, count"
scalar CAIN.ueD2DTx[19].networkLayer.arp 	sentReply:count 	0
attr title  "ARP replies sent, count"
scalar CAIN.ueD2DTx[19].networkLayer.arp 	sentReq:count 	0
attr title  "ARP request sent, count"
