file 81799 1588965607                                           
version 2
run CAIN-65-20200508-16:20:04-12218
attr configname CAIN
attr datetime 20200508-16:20:04
attr dist 200
attr experiment CAIN
attr extAllocType "\"RANDOM_ALLOC\""
attr inifile omnetpp.ini
attr iterationvars "$numUe=20, $pwr=-50, $dist=200, $mob=\"./movements/RWPRPGM-0.0.movements\", $extAllocType=\"RANDOM_ALLOC\""
attr iterationvars2 "$numUe=20, $pwr=-50, $dist=200, $mob=\"./movements/RWPRPGM-0.0.movements\", $extAllocType=\"RANDOM_ALLOC\", $repetition=0"
attr measurement "$numUe=20, $pwr=-50, $dist=200, $mob=\"./movements/RWPRPGM-0.0.movements\", $extAllocType=\"RANDOM_ALLOC\""
attr mob "\"./movements/RWPRPGM-0.0.movements\""
attr network lte.simulations.networks.CAIN
attr numUe 20
attr processid 12218
attr pwr -50
attr repetition 0
attr replication #0
attr resultdir results
attr runnumber 65
attr seedset 0
param **.**.amcMode "\"AUTO\""
param **.amcMode "\"D2D\""
param **.cainNetwork true
param **.channelControl.alpha 1.0
param **.channelControl.carrierFrequency 2100e+6Hz
param **.channelControl.pMax 10W
param **.d2dCqi 7
param **.deployer.numRbDl 50
param **.deployer.numRbUl 50
param **.distThresh ${dist=200}
param **.fbDelay 1
param **.feedbackComputation "xmldoc(\"config_channel.xml\")"
param **.mobility.constraintAreaMaxX 1000m
param **.mobility.constraintAreaMaxY 1000m
param **.mobility.constraintAreaMaxZ 0m
param **.mobility.constraintAreaMinX 0m
param **.mobility.constraintAreaMinY 0m
param **.mobility.constraintAreaMinZ 0m
param **.nic.phy.channelModel "xmldoc(\"config_channel.xml\")"
param **.numBands 50
param **.pwrThresh "${pwr= -50}"
param **.qtdThresh 3
param **.rbAllocationType "\"localized\""
param **.routingRecorder.enabled false
param **.tcpApp[*].tClose -1s
param **.ueD2DTx[*].mobility.changeAngleBy "normal(0deg, 30deg)"
param **.ueD2DTx[*].mobility.changeInterval "normal(5s, 0.1s)"
param **.ueD2DTx[*].mobility.nodeId -1
param **.ueD2DTx[*].mobility.speed "normal(2mps, 0.01mps)"
param **.ueD2DTx[*].mobility.traceFile "${mob=\"./movements/RWP-0.0.movements\",\"./movements/RWP-0.5.movements\",\"./movements/RPGM-0.0.movements\",\"./movements/RPGM-0.5.movements\",\"./movements/RWPRPGM-0.0.movements\",\"./movements/RWPRPGM-0.5.movements\"}"
param **.ueD2DTx[*].mobilityType "\"BonnMotionMobility\""
param **.usePreconfiguredTxParams false
param *.eNodeB*.numX2Apps 1
param *.eNodeB*.x2App[*].server.localPort "5000 + ancestorIndex(1)"
param *.eNodeB.d2dCapable false
param *.eNodeB.mobility.initFromDisplayString false
param *.eNodeB.mobility.initialX 300m
param *.eNodeB.mobility.initialY 300m
param *.eNodeB.nic.phy.enableD2DCqiReporting true
param *.eNodeB.txPower 19952.62315mw
param *.eNodeB.x2App[0].client.connectAddress "\"eNodeB1%x2ppp0\""
param *.eNodeB1.d2dCapable true
param *.eNodeB1.mobility.initFromDisplayString false
param *.eNodeB1.mobility.initialX 700m
param *.eNodeB1.mobility.initialY 300m
param *.eNodeB1.nic.phy.enableD2DCqiReporting true
param *.eNodeB1.txPower 19952.62315mw
param *.eNodeB1.x2App[0].client.connectAddress "\"eNodeB%x2ppp0\""
param *.extCell[*].bandAllocationType "${extAllocType=\"FULL_ALLOC\",\"RANDOM_ALLOC\",\"CONTIGUOUS_ALLOC\"}"
param *.extCell[*].bandUtilization 0.5
param *.extCell[*].txDirection "\"ANISOTROPIC\""
param *.extCell[*].txPower 20
param *.extCell[0].position_x 100m
param *.extCell[0].position_y 600m
param *.extCell[0].txAngle 315
param *.extCell[1].position_x 600m
param *.extCell[1].position_y 600m
param *.extCell[1].txAngle 225
param *.numExtCells 2
param *.numUeCell 0
param *.numUeD2DRx 1
param *.numUeD2DTx 1
param *.ue*.macCellId 1
param *.ue*.masterId 1
param *.ue*.mobility.initFromDisplayString false
param *.ue*[0].macCellId 1
param *.ue*[0].masterId 1
param *.ue*[0].mobility.initFromDisplayString false
param *.ueD2D*.numTcpApps 1
param *.ueD2D*[*].d2dCapable true
param *.ueD2D*[0].d2dCapable false
param *.ueD2D*[0].numTcpApps 1
param *.ueD2DRx[0].mobility.initialX 310m
param *.ueD2DRx[0].mobility.initialY 350m
param *.ueD2DRx[0].tcpApp[*].localPort 1000
param *.ueD2DRx[0].tcpApp[*].typename "\"TCPSinkApp\""
param *.ueD2DTx*.nic.d2dPeerAddresses "\"ueD2DTx[1]\""
param *.ueD2DTx*.tcpApp[*].connectAddress "\"ueD2DTx[0]\""
param *.ueD2DTx*.tcpApp[*].localAddress "\"ueD2DTx\""
param *.ueD2DTx*.tcpApp[*].localPort 1000
param *.ueD2DTx*.tcpApp[*].sendBytes 1GiB
param *.ueD2DTx*.tcpApp[*].typename "\"TCPSessionApp\""
param *.ueD2DTx*.tcpApp[0].active true
param *.ueD2DTx*.tcpApp[0].connectPort 1000
param *.ueD2DTx*.tcpApp[0].tOpen uniform(0.010s,0.1s)
param *.ueD2DTx*.tcpApp[0].tSend uniform(0.15s,0.5s)
param *.ueD2DTx[0].mobility.initialX 290m
param *.ueD2DTx[0].mobility.initialY 350m
param *.ueD2DTx[0].tcpApp[*].localPort 1000
param *.ueD2DTx[0].tcpApp[*].sendBytes 1GiB
param *.ueD2DTx[0].tcpApp[*].typename "\"TCPSessionApp\""
param *.ueD2DTx[0].tcpApp[0].active true
param *.ueD2DTx[0].tcpApp[0].connectAddress "\"ueD2DRx[0]\""
param *.ueD2DTx[0].tcpApp[0].connectPort 1000
param *.ueD2DTx[0].tcpApp[0].localAddress "\"ueD2DTx[0]\""
param *.ueD2DTx[0].tcpApp[0].tOpen uniform(0.010s,0.1s)
param *.ueD2DTx[0].tcpApp[0].tSend uniform(0.15s,0.5s)
param *.ueD2DTx[1].mobility.initialX 690m
param *.ueD2DTx[1].mobility.initialY 250m

vector 8  CAIN.server.ppp[0].queue  queueLength:vector  ETV
attr interpolationmode  sample-hold
attr title  "queue length, vector"
vector 9  CAIN.server.ppp[0].ppp  txState:vector  ETV
attr interpolationmode  sample-hold
attr title  "tx state, vector"
vector 24  CAIN.router.ppp[0].queue  queueLength:vector  ETV
attr interpolationmode  sample-hold
attr title  "queue length, vector"
vector 25  CAIN.router.ppp[0].ppp  txState:vector  ETV
attr interpolationmode  sample-hold
attr title  "tx state, vector"
vector 35  CAIN.router.ppp[1].queue  queueLength:vector  ETV
attr interpolationmode  sample-hold
attr title  "queue length, vector"
vector 36  CAIN.router.ppp[1].ppp  txState:vector  ETV
attr interpolationmode  sample-hold
attr title  "tx state, vector"
vector 56  CAIN.pgw.ppp[0].queue  queueLength:vector  ETV
attr interpolationmode  sample-hold
attr title  "queue length, vector"
vector 57  CAIN.pgw.ppp[0].ppp  txState:vector  ETV
attr interpolationmode  sample-hold
attr title  "tx state, vector"
vector 67  CAIN.pgw.ppp[1].queue  queueLength:vector  ETV
attr interpolationmode  sample-hold
attr title  "queue length, vector"
vector 68  CAIN.pgw.ppp[1].ppp  txState:vector  ETV
attr interpolationmode  sample-hold
attr title  "tx state, vector"
vector 78  CAIN.pgw.pppInterface.queue  queueLength:vector  ETV
attr interpolationmode  sample-hold
attr title  "queue length, vector"
vector 79  CAIN.pgw.pppInterface.ppp  txState:vector  ETV
attr interpolationmode  sample-hold
attr title  "tx state, vector"
vector 120  CAIN.eNodeB.pppIf.queue  queueLength:vector  ETV
attr interpolationmode  sample-hold
attr title  "queue length, vector"
vector 121  CAIN.eNodeB.pppIf.ppp  txState:vector  ETV
attr interpolationmode  sample-hold
attr title  "tx state, vector"
vector 131  CAIN.eNodeB.x2ppp[0].queue  queueLength:vector  ETV
attr interpolationmode  sample-hold
attr title  "queue length, vector"
vector 132  CAIN.eNodeB.x2ppp[0].ppp  txState:vector  ETV
attr interpolationmode  sample-hold
attr title  "tx state, vector"
vector 178  CAIN.eNodeB1.pppIf.queue  queueLength:vector  ETV
attr interpolationmode  sample-hold
attr title  "queue length, vector"
vector 179  CAIN.eNodeB1.pppIf.ppp  txState:vector  ETV
attr interpolationmode  sample-hold
attr title  "tx state, vector"
vector 189  CAIN.eNodeB1.x2ppp[0].queue  queueLength:vector  ETV
attr interpolationmode  sample-hold
attr title  "queue length, vector"
vector 190  CAIN.eNodeB1.x2ppp[0].ppp  txState:vector  ETV
attr interpolationmode  sample-hold
attr title  "tx state, vector"
vector 231  CAIN.ueD2DTx[0].nic.phy  servingCell:vector  ETV
attr source  servingCell
attr title  "ID of the serving eNodeB for the UE, vector"
attr unit  ""
vector 263  CAIN.ueD2DTx[1].nic.phy  servingCell:vector  ETV
attr source  servingCell
attr title  "ID of the serving eNodeB for the UE, vector"
attr unit  ""
vector 295  CAIN.ueD2DTx[2].nic.phy  servingCell:vector  ETV
attr source  servingCell
attr title  "ID of the serving eNodeB for the UE, vector"
attr unit  ""
vector 327  CAIN.ueD2DTx[3].nic.phy  servingCell:vector  ETV
attr source  servingCell
attr title  "ID of the serving eNodeB for the UE, vector"
attr unit  ""
vector 359  CAIN.ueD2DTx[4].nic.phy  servingCell:vector  ETV
attr source  servingCell
attr title  "ID of the serving eNodeB for the UE, vector"
attr unit  ""
vector 391  CAIN.ueD2DTx[5].nic.phy  servingCell:vector  ETV
attr source  servingCell
attr title  "ID of the serving eNodeB for the UE, vector"
attr unit  ""
vector 423  CAIN.ueD2DTx[6].nic.phy  servingCell:vector  ETV
attr source  servingCell
attr title  "ID of the serving eNodeB for the UE, vector"
attr unit  ""
vector 455  CAIN.ueD2DTx[7].nic.phy  servingCell:vector  ETV
attr source  servingCell
attr title  "ID of the serving eNodeB for the UE, vector"
attr unit  ""
vector 487  CAIN.ueD2DTx[8].nic.phy  servingCell:vector  ETV
attr source  servingCell
attr title  "ID of the serving eNodeB for the UE, vector"
attr unit  ""
vector 519  CAIN.ueD2DTx[9].nic.phy  servingCell:vector  ETV
attr source  servingCell
attr title  "ID of the serving eNodeB for the UE, vector"
attr unit  ""
vector 551  CAIN.ueD2DTx[10].nic.phy  servingCell:vector  ETV
attr source  servingCell
attr title  "ID of the serving eNodeB for the UE, vector"
attr unit  ""
vector 583  CAIN.ueD2DTx[11].nic.phy  servingCell:vector  ETV
attr source  servingCell
attr title  "ID of the serving eNodeB for the UE, vector"
attr unit  ""
vector 615  CAIN.ueD2DTx[12].nic.phy  servingCell:vector  ETV
attr source  servingCell
attr title  "ID of the serving eNodeB for the UE, vector"
attr unit  ""
vector 647  CAIN.ueD2DTx[13].nic.phy  servingCell:vector  ETV
attr source  servingCell
attr title  "ID of the serving eNodeB for the UE, vector"
attr unit  ""
vector 679  CAIN.ueD2DTx[14].nic.phy  servingCell:vector  ETV
attr source  servingCell
attr title  "ID of the serving eNodeB for the UE, vector"
attr unit  ""
vector 711  CAIN.ueD2DTx[15].nic.phy  servingCell:vector  ETV
attr source  servingCell
attr title  "ID of the serving eNodeB for the UE, vector"
attr unit  ""
vector 743  CAIN.ueD2DTx[16].nic.phy  servingCell:vector  ETV
attr source  servingCell
attr title  "ID of the serving eNodeB for the UE, vector"
attr unit  ""
vector 775  CAIN.ueD2DTx[17].nic.phy  servingCell:vector  ETV
attr source  servingCell
attr title  "ID of the serving eNodeB for the UE, vector"
attr unit  ""
vector 807  CAIN.ueD2DTx[18].nic.phy  servingCell:vector  ETV
attr source  servingCell
attr title  "ID of the serving eNodeB for the UE, vector"
attr unit  ""
vector 839  CAIN.ueD2DTx[19].nic.phy  servingCell:vector  ETV
attr source  servingCell
attr title  "ID of the serving eNodeB for the UE, vector"
attr unit  ""
vector 863  CAIN.eNodeB.sctp  "Throughput of Association 3"  ETV
vector 885  CAIN.eNodeB1.sctp  "Throughput of Association 4"  ETV
vector 907  CAIN.eNodeB.sctp  "Throughput of Association 1"  ETV
vector 927  CAIN.eNodeB.sctp  "Fast Recovery State 1:10.0.5.2"  ETV
vector 956  CAIN.eNodeB1.sctp  "Throughput of Association 2"  ETV
vector 976  CAIN.eNodeB1.sctp  "Fast Recovery State 2:10.0.5.1"  ETV
vector 128  CAIN.eNodeB.x2ppp[0].queue  rcvdPk:vector(packetBytes)  ETV
attr interpolationmode  none
attr title  "received packets, vector(packetBytes)"
vector 130  CAIN.eNodeB.x2ppp[0].queue  queueingTime:vector  ETV
attr interpolationmode  none
attr title  "queueing time, vector"
vector 186  CAIN.eNodeB1.x2ppp[0].queue  rcvdPk:vector(packetBytes)  ETV
attr interpolationmode  none
attr title  "received packets, vector(packetBytes)"
vector 188  CAIN.eNodeB1.x2ppp[0].queue  queueingTime:vector  ETV
attr interpolationmode  none
attr title  "queueing time, vector"
vector 137  CAIN.eNodeB.x2ppp[0].ppp  rcvdPkFromHL:vector(packetBytes)  ETV
attr interpolationmode  none
attr source  packetReceivedFromUpper
attr title  "packets received from higher layer, vector(packetBytes)"
vector 133  CAIN.eNodeB.x2ppp[0].ppp  txPk:vector(packetBytes)  ETV
attr interpolationmode  none
attr source  packetSentToLower
attr title  "packets transmitted, vector(packetBytes)"
vector 195  CAIN.eNodeB1.x2ppp[0].ppp  rcvdPkFromHL:vector(packetBytes)  ETV
attr interpolationmode  none
attr source  packetReceivedFromUpper
attr title  "packets received from higher layer, vector(packetBytes)"
vector 191  CAIN.eNodeB1.x2ppp[0].ppp  txPk:vector(packetBytes)  ETV
attr interpolationmode  none
attr source  packetSentToLower
attr title  "packets transmitted, vector(packetBytes)"
vector 192  CAIN.eNodeB1.x2ppp[0].ppp  rxPkOk:vector(packetBytes)  ETV
attr interpolationmode  none
attr source  rxPkOk
attr title  "packets received OK, vector(packetBytes)"
vector 196  CAIN.eNodeB1.x2ppp[0].ppp  passedUpPk:vector(packetBytes)  ETV
attr interpolationmode  none
attr source  packetSentToUpper
attr title  "packets passed to higher layer, vector(packetBytes)"
vector 134  CAIN.eNodeB.x2ppp[0].ppp  rxPkOk:vector(packetBytes)  ETV
attr interpolationmode  none
attr source  rxPkOk
attr title  "packets received OK, vector(packetBytes)"
vector 138  CAIN.eNodeB.x2ppp[0].ppp  passedUpPk:vector(packetBytes)  ETV
attr interpolationmode  none
attr source  packetSentToUpper
attr title  "packets passed to higher layer, vector(packetBytes)"
vector 1005  CAIN.eNodeB1.sctp  "Throughput of Association 4"  ETV
vector 882  CAIN.eNodeB1.sctp  "Peer Rwnd 4"  ETV
vector 1025  CAIN.eNodeB1.sctp  "Fast Recovery State 5:10.0.4.1"  ETV
vector 1052  CAIN.eNodeB1.sctp  "Fast Recovery State 5:10.0.2.2"  ETV
vector 1079  CAIN.eNodeB1.sctp  "Fast Recovery State 5:10.0.5.1"  ETV
vector 1108  CAIN.eNodeB.sctp  "Throughput of Association 3"  ETV
vector 860  CAIN.eNodeB.sctp  "Peer Rwnd 3"  ETV
vector 1128  CAIN.eNodeB.sctp  "Fast Recovery State 6:10.0.4.2"  ETV
vector 1155  CAIN.eNodeB.sctp  "Fast Recovery State 6:10.0.3.2"  ETV
vector 1182  CAIN.eNodeB.sctp  "Fast Recovery State 6:10.0.5.2"  ETV
vector 904  CAIN.eNodeB.sctp  "Peer Rwnd 1"  ETV
vector 1209  CAIN.eNodeB.sctp  "Fast Recovery State 1:10.0.4.2"  ETV
vector 1236  CAIN.eNodeB.sctp  "Fast Recovery State 1:10.0.3.2"  ETV
vector 953  CAIN.eNodeB1.sctp  "Peer Rwnd 2"  ETV
vector 1263  CAIN.eNodeB1.sctp  "Fast Recovery State 2:10.0.4.1"  ETV
vector 1290  CAIN.eNodeB1.sctp  "Fast Recovery State 2:10.0.2.2"  ETV
vector 1035  CAIN.eNodeB1.sctp  "Slow Start Threshold 5:10.0.2.2"  ETV
vector 1036  CAIN.eNodeB1.sctp  "Congestion Window 5:10.0.2.2"  ETV
vector 1037  CAIN.eNodeB1.sctp  "Bandwidth 5:10.0.2.2"  ETV
vector 1040  CAIN.eNodeB1.sctp  "HB Sent 5:10.0.2.2"  ETV
vector 1033  CAIN.eNodeB1.sctp  "RTO 5:10.0.2.2"  ETV
vector 1008  CAIN.eNodeB1.sctp  "Slow Start Threshold 5:10.0.4.1"  ETV
vector 1009  CAIN.eNodeB1.sctp  "Congestion Window 5:10.0.4.1"  ETV
vector 1010  CAIN.eNodeB1.sctp  "Bandwidth 5:10.0.4.1"  ETV
vector 1013  CAIN.eNodeB1.sctp  "HB Sent 5:10.0.4.1"  ETV
vector 1006  CAIN.eNodeB1.sctp  "RTO 5:10.0.4.1"  ETV
vector 1062  CAIN.eNodeB1.sctp  "Slow Start Threshold 5:10.0.5.1"  ETV
vector 1063  CAIN.eNodeB1.sctp  "Congestion Window 5:10.0.5.1"  ETV
vector 1064  CAIN.eNodeB1.sctp  "Bandwidth 5:10.0.5.1"  ETV
vector 1060  CAIN.eNodeB1.sctp  "RTO 5:10.0.5.1"  ETV
vector 1138  CAIN.eNodeB.sctp  "Slow Start Threshold 6:10.0.3.2"  ETV
vector 1139  CAIN.eNodeB.sctp  "Congestion Window 6:10.0.3.2"  ETV
vector 1140  CAIN.eNodeB.sctp  "Bandwidth 6:10.0.3.2"  ETV
vector 1143  CAIN.eNodeB.sctp  "HB Sent 6:10.0.3.2"  ETV
vector 1136  CAIN.eNodeB.sctp  "RTO 6:10.0.3.2"  ETV
vector 1111  CAIN.eNodeB.sctp  "Slow Start Threshold 6:10.0.4.2"  ETV
vector 1112  CAIN.eNodeB.sctp  "Congestion Window 6:10.0.4.2"  ETV
vector 1113  CAIN.eNodeB.sctp  "Bandwidth 6:10.0.4.2"  ETV
vector 1116  CAIN.eNodeB.sctp  "HB Sent 6:10.0.4.2"  ETV
vector 1109  CAIN.eNodeB.sctp  "RTO 6:10.0.4.2"  ETV
vector 1165  CAIN.eNodeB.sctp  "Slow Start Threshold 6:10.0.5.2"  ETV
vector 1166  CAIN.eNodeB.sctp  "Congestion Window 6:10.0.5.2"  ETV
vector 1167  CAIN.eNodeB.sctp  "Bandwidth 6:10.0.5.2"  ETV
vector 1163  CAIN.eNodeB.sctp  "RTO 6:10.0.5.2"  ETV
vector 916  CAIN.eNodeB.sctp  "HB ACK Sent 1:10.0.5.2"  ETV
vector 917  CAIN.eNodeB.sctp  "HB Received 1:10.0.5.2"  ETV
vector 965  CAIN.eNodeB1.sctp  "HB ACK Sent 2:10.0.5.1"  ETV
vector 966  CAIN.eNodeB1.sctp  "HB Received 2:10.0.5.1"  ETV
vector 1219  CAIN.eNodeB.sctp  "Slow Start Threshold 1:10.0.3.2"  ETV
vector 1220  CAIN.eNodeB.sctp  "Congestion Window 1:10.0.3.2"  ETV
vector 1221  CAIN.eNodeB.sctp  "Bandwidth 1:10.0.3.2"  ETV
vector 1224  CAIN.eNodeB.sctp  "HB Sent 1:10.0.3.2"  ETV
vector 1217  CAIN.eNodeB.sctp  "RTO 1:10.0.3.2"  ETV
vector 1192  CAIN.eNodeB.sctp  "Slow Start Threshold 1:10.0.4.2"  ETV
vector 1193  CAIN.eNodeB.sctp  "Congestion Window 1:10.0.4.2"  ETV
vector 1194  CAIN.eNodeB.sctp  "Bandwidth 1:10.0.4.2"  ETV
vector 1197  CAIN.eNodeB.sctp  "HB Sent 1:10.0.4.2"  ETV
vector 1190  CAIN.eNodeB.sctp  "RTO 1:10.0.4.2"  ETV
vector 910  CAIN.eNodeB.sctp  "Slow Start Threshold 1:10.0.5.2"  ETV
vector 911  CAIN.eNodeB.sctp  "Congestion Window 1:10.0.5.2"  ETV
vector 912  CAIN.eNodeB.sctp  "Bandwidth 1:10.0.5.2"  ETV
vector 908  CAIN.eNodeB.sctp  "RTO 1:10.0.5.2"  ETV
vector 1273  CAIN.eNodeB1.sctp  "Slow Start Threshold 2:10.0.2.2"  ETV
vector 1274  CAIN.eNodeB1.sctp  "Congestion Window 2:10.0.2.2"  ETV
vector 1275  CAIN.eNodeB1.sctp  "Bandwidth 2:10.0.2.2"  ETV
vector 1278  CAIN.eNodeB1.sctp  "HB Sent 2:10.0.2.2"  ETV
vector 1271  CAIN.eNodeB1.sctp  "RTO 2:10.0.2.2"  ETV
vector 1246  CAIN.eNodeB1.sctp  "Slow Start Threshold 2:10.0.4.1"  ETV
vector 1247  CAIN.eNodeB1.sctp  "Congestion Window 2:10.0.4.1"  ETV
vector 1248  CAIN.eNodeB1.sctp  "Bandwidth 2:10.0.4.1"  ETV
vector 1251  CAIN.eNodeB1.sctp  "HB Sent 2:10.0.4.1"  ETV
vector 1244  CAIN.eNodeB1.sctp  "RTO 2:10.0.4.1"  ETV
vector 959  CAIN.eNodeB1.sctp  "Slow Start Threshold 2:10.0.5.1"  ETV
vector 960  CAIN.eNodeB1.sctp  "Congestion Window 2:10.0.5.1"  ETV
vector 961  CAIN.eNodeB1.sctp  "Bandwidth 2:10.0.5.1"  ETV
vector 957  CAIN.eNodeB1.sctp  "RTO 2:10.0.5.1"  ETV
vector 1173  CAIN.eNodeB.sctp  "HB ACK Received 6:10.0.5.2"  ETV
vector 1164  CAIN.eNodeB.sctp  "RTT 6:10.0.5.2"  ETV
vector 1070  CAIN.eNodeB1.sctp  "HB ACK Received 5:10.0.5.1"  ETV
vector 1061  CAIN.eNodeB1.sctp  "RTT 5:10.0.5.1"  ETV
vector 1171  CAIN.eNodeB.sctp  "HB ACK Sent 6:10.0.5.2"  ETV
vector 1172  CAIN.eNodeB.sctp  "HB Received 6:10.0.5.2"  ETV
vector 1068  CAIN.eNodeB1.sctp  "HB ACK Sent 5:10.0.5.1"  ETV
vector 1069  CAIN.eNodeB1.sctp  "HB Received 5:10.0.5.1"  ETV
vector 967  CAIN.eNodeB1.sctp  "HB ACK Received 2:10.0.5.1"  ETV
vector 958  CAIN.eNodeB1.sctp  "RTT 2:10.0.5.1"  ETV
vector 918  CAIN.eNodeB.sctp  "HB ACK Received 1:10.0.5.2"  ETV
vector 909  CAIN.eNodeB.sctp  "RTT 1:10.0.5.2"  ETV
vector 96  CAIN.eNodeB.nic.mac  receivedPacketFromLowerLayer:vector(packetBytes)  ETV
attr interpolationmode  none
attr source  receivedPacketFromLowerLayer
vector 1305  CAIN.eNodeB.sctp  "SendQueue of Association 6"  ETV
vector 1168  CAIN.eNodeB.sctp  "TSN Sent 6:10.0.5.2"  ETV
vector 1175  CAIN.eNodeB.sctp  "Outstanding Bytes 6:10.0.5.2"  ETV
vector 848  CAIN.eNodeB.sctp  "Outstanding Bytes 3:Total"  ETV
vector 1174  CAIN.eNodeB.sctp  "Queued Sent Bytes 6:10.0.5.2"  ETV
vector 847  CAIN.eNodeB.sctp  "Queued Sent Bytes 3:Total"  ETV
vector 963  CAIN.eNodeB1.sctp  "TSN Received 2:10.0.5.1"  ETV
vector 939  CAIN.eNodeB1.sctp  "Queued Received Bytes 2:Total"  ETV
vector 935  CAIN.eNodeB1.sctp  "Advertised Receiver Window 2"  ETV
vector 944  CAIN.eNodeB1.sctp  "Number of Total Gap Blocks Stored 2"  ETV
vector 945  CAIN.eNodeB1.sctp  "Number of Revokable Gap Blocks Stored 2"  ETV
vector 946  CAIN.eNodeB1.sctp  "Number of Non-Revokable Gap Blocks Stored 2"  ETV
vector 947  CAIN.eNodeB1.sctp  "Number of Duplicate TSNs Stored 2"  ETV
vector 951  CAIN.eNodeB1.sctp  "Length of SACK Sent 2"  ETV
vector 948  CAIN.eNodeB1.sctp  "Number of Revokable Gap Blocks Sent 2"  ETV
vector 949  CAIN.eNodeB1.sctp  "Number of Non-Revokable Gap Blocks Sent 2"  ETV
vector 950  CAIN.eNodeB1.sctp  "Number of Duplicate TSNs Sent 2"  ETV
vector 955  CAIN.eNodeB1.sctp  "End to End Delay of Association 2"  ETV
vector 199  CAIN.eNodeB1.x2App[0].client  rcvdPk:vector(packetBytes)  ETV
attr interpolationmode  none
attr source  rcvdPk
attr title  "packets received, vector(packetBytes)"
vector 1304  CAIN.eNodeB.sctp  "Number of Gap Blocks in Last SACK of Association 6"  ETV
vector 849  CAIN.eNodeB.sctp  "Number of Revokable Gap Blocks in SACK 3"  ETV
vector 850  CAIN.eNodeB.sctp  "Number of Non-Revokable Gap Blocks in SACK 3"  ETV
vector 1185  CAIN.eNodeB.sctp  "TSN Acked CumAck 6:10.0.5.2"  ETV
vector 1151  CAIN.eNodeB.sctp  "Number of Gap Acked Chunks in Last SACK 6:10.0.3.2"  ETV
vector 1152  CAIN.eNodeB.sctp  "Number of Non-Revokable Gap Acked Chunks in Last SACK 6:10.0.3.2"  ETV
vector 1153  CAIN.eNodeB.sctp  "Number of Gap Missed Chunks in Last SACK 6:10.0.3.2"  ETV
vector 1124  CAIN.eNodeB.sctp  "Number of Gap Acked Chunks in Last SACK 6:10.0.4.2"  ETV
vector 1125  CAIN.eNodeB.sctp  "Number of Non-Revokable Gap Acked Chunks in Last SACK 6:10.0.4.2"  ETV
vector 1126  CAIN.eNodeB.sctp  "Number of Gap Missed Chunks in Last SACK 6:10.0.4.2"  ETV
vector 1178  CAIN.eNodeB.sctp  "Number of Gap Acked Chunks in Last SACK 6:10.0.5.2"  ETV
vector 1179  CAIN.eNodeB.sctp  "Number of Non-Revokable Gap Acked Chunks in Last SACK 6:10.0.5.2"  ETV
vector 1180  CAIN.eNodeB.sctp  "Number of Gap Missed Chunks in Last SACK 6:10.0.5.2"  ETV
vector 859  CAIN.eNodeB.sctp  "Arwnd in Last SACK 3"  ETV
vector 1187  CAIN.eNodeB.sctp  "TSN PseudoCumAck 6:10.0.5.2"  ETV
vector 1188  CAIN.eNodeB.sctp  "TSN RTXPseudoCumAck 6:10.0.5.2"  ETV
vector 1181  CAIN.eNodeB.sctp  "Partial Bytes Acked 6:10.0.5.2"  ETV
vector 1333  CAIN.ueD2DTx[13].tcp  tcpRcvQueueBytes  ETV
vector 1320  CAIN.ueD2DTx[13].tcp  "advertised window"  ETV
vector 1319  CAIN.ueD2DTx[13].tcp  "receive window"  ETV
vector 1322  CAIN.ueD2DTx[13].tcp  "sent ack"  ETV
vector 621  CAIN.ueD2DTx[13].nic.pdcpRrc  receivedPacketFromUpperLayer:vector(packetBytes)  ETV
attr interpolationmode  none
attr source  receivedPacketFromUpperLayer
vector 624  CAIN.ueD2DTx[13].nic.pdcpRrc  sentPacketToLowerLayer:vector(packetBytes)  ETV
attr interpolationmode  none
attr source  sentPacketToLowerLayer
vector 625  CAIN.ueD2DTx[13].nic.mac  receivedPacketFromUpperLayer:vector(packetBytes)  ETV
attr interpolationmode  none
attr source  receivedPacketFromUpperLayer
vector 635  CAIN.ueD2DTx[13].nic.mac  CainHopMessageSent:vector  ETV
attr interpolationmode  none
attr title  "# of Sent CAIN hop message, vector"
vector 628  CAIN.ueD2DTx[13].nic.mac  sentPacketToLowerLayer:vector(packetBytes)  ETV
attr interpolationmode  none
attr source  sentPacketToLowerLayer
vector 1357  CAIN.ueD2DTx[19].tcp  tcpRcvQueueBytes  ETV
vector 1344  CAIN.ueD2DTx[19].tcp  "advertised window"  ETV
vector 1343  CAIN.ueD2DTx[19].tcp  "receive window"  ETV
vector 1346  CAIN.ueD2DTx[19].tcp  "sent ack"  ETV
vector 813  CAIN.ueD2DTx[19].nic.pdcpRrc  receivedPacketFromUpperLayer:vector(packetBytes)  ETV
attr interpolationmode  none
attr source  receivedPacketFromUpperLayer
vector 816  CAIN.ueD2DTx[19].nic.pdcpRrc  sentPacketToLowerLayer:vector(packetBytes)  ETV
attr interpolationmode  none
attr source  sentPacketToLowerLayer
vector 817  CAIN.ueD2DTx[19].nic.mac  receivedPacketFromUpperLayer:vector(packetBytes)  ETV
attr interpolationmode  none
attr source  receivedPacketFromUpperLayer
vector 1381  CAIN.ueD2DTx[12].tcp  tcpRcvQueueBytes  ETV
vector 1368  CAIN.ueD2DTx[12].tcp  "advertised window"  ETV
vector 1367  CAIN.ueD2DTx[12].tcp  "receive window"  ETV
vector 1370  CAIN.ueD2DTx[12].tcp  "sent ack"  ETV
vector 589  CAIN.ueD2DTx[12].nic.pdcpRrc  receivedPacketFromUpperLayer:vector(packetBytes)  ETV
attr interpolationmode  none
attr source  receivedPacketFromUpperLayer
vector 592  CAIN.ueD2DTx[12].nic.pdcpRrc  sentPacketToLowerLayer:vector(packetBytes)  ETV
attr interpolationmode  none
attr source  sentPacketToLowerLayer
vector 593  CAIN.ueD2DTx[12].nic.mac  receivedPacketFromUpperLayer:vector(packetBytes)  ETV
attr interpolationmode  none
attr source  receivedPacketFromUpperLayer
vector 602  CAIN.ueD2DTx[12].nic.mac  CainMessageSent:vector  ETV
attr interpolationmode  none
attr title  "# of Sent CAIN message, vector"
vector 596  CAIN.ueD2DTx[12].nic.mac  sentPacketToLowerLayer:vector(packetBytes)  ETV
attr interpolationmode  none
attr source  sentPacketToLowerLayer
vector 826  CAIN.ueD2DTx[19].nic.mac  CainMessageSent:vector  ETV
attr interpolationmode  none
attr title  "# of Sent CAIN message, vector"
vector 820  CAIN.ueD2DTx[19].nic.mac  sentPacketToLowerLayer:vector(packetBytes)  ETV
attr interpolationmode  none
attr source  sentPacketToLowerLayer
vector 594  CAIN.ueD2DTx[12].nic.mac  receivedPacketFromLowerLayer:vector(packetBytes)  ETV
attr interpolationmode  none
attr source  receivedPacketFromLowerLayer
vector 338  CAIN.ueD2DTx[4].nic.mac  receivedPacketFromLowerLayer:vector(packetBytes)  ETV
attr interpolationmode  none
attr source  receivedPacketFromLowerLayer
vector 340  CAIN.ueD2DTx[4].nic.mac  sentPacketToLowerLayer:vector(packetBytes)  ETV
attr interpolationmode  none
attr source  sentPacketToLowerLayer
vector 111  CAIN.eNodeB.nic.mac  racpkt:vector  ETV
attr interpolationmode  none
attr title  "eNB received racpkt message, vector"
vector 112  CAIN.eNodeB.nic.mac  racDistanceSignal:vector  ETV
attr interpolationmode  none
attr title  "Rac distance to enb, vector"
vector 113  CAIN.eNodeB.nic.mac  racServedDevsSignal:vector  ETV
attr interpolationmode  none
attr title  "# of devices served on rac arriavall, vector"
vector 106  CAIN.eNodeB.nic.mac  DistanceSignal:vector  ETV
attr interpolationmode  none
attr title  "Distance to enb, vector"
vector 100  CAIN.eNodeB.nic.mac  CainMessage:vector  ETV
attr interpolationmode  none
attr title  "eNB received CAIN message, vector"
vector 98  CAIN.eNodeB.nic.mac  sentPacketToLowerLayer:vector(packetBytes)  ETV
attr interpolationmode  none
attr source  sentPacketToLowerLayer
vector 101  CAIN.eNodeB.nic.mac  CainHopMessage:vector  ETV
attr interpolationmode  none
attr title  "eNB received CAIN hop message, vector"
vector 344  CAIN.ueD2DTx[4].nic.mac  DropedCainMessage:vector  ETV
attr interpolationmode  none
attr title  "Droped CAIN message due to RB not available, vector"
vector 345  CAIN.ueD2DTx[4].nic.mac  DropedHopMessage:vector  ETV
attr interpolationmode  none
attr title  "Droped Hop CAIN message due to RB not available, vector"
vector 1405  CAIN.ueD2DTx[11].tcp  tcpRcvQueueBytes  ETV
vector 1392  CAIN.ueD2DTx[11].tcp  "advertised window"  ETV
vector 1391  CAIN.ueD2DTx[11].tcp  "receive window"  ETV
vector 1394  CAIN.ueD2DTx[11].tcp  "sent ack"  ETV
vector 557  CAIN.ueD2DTx[11].nic.pdcpRrc  receivedPacketFromUpperLayer:vector(packetBytes)  ETV
attr interpolationmode  none
attr source  receivedPacketFromUpperLayer
vector 560  CAIN.ueD2DTx[11].nic.pdcpRrc  sentPacketToLowerLayer:vector(packetBytes)  ETV
attr interpolationmode  none
attr source  sentPacketToLowerLayer
vector 561  CAIN.ueD2DTx[11].nic.mac  receivedPacketFromUpperLayer:vector(packetBytes)  ETV
attr interpolationmode  none
attr source  receivedPacketFromUpperLayer
vector 571  CAIN.ueD2DTx[11].nic.mac  CainHopMessageSent:vector  ETV
attr interpolationmode  none
attr title  "# of Sent CAIN hop message, vector"
vector 564  CAIN.ueD2DTx[11].nic.mac  sentPacketToLowerLayer:vector(packetBytes)  ETV
attr interpolationmode  none
attr source  sentPacketToLowerLayer
vector 530  CAIN.ueD2DTx[10].nic.mac  receivedPacketFromLowerLayer:vector(packetBytes)  ETV
attr interpolationmode  none
attr source  receivedPacketFromLowerLayer
vector 532  CAIN.ueD2DTx[10].nic.mac  sentPacketToLowerLayer:vector(packetBytes)  ETV
attr interpolationmode  none
attr source  sentPacketToLowerLayer
vector 274  CAIN.ueD2DTx[2].nic.mac  receivedPacketFromLowerLayer:vector(packetBytes)  ETV
attr interpolationmode  none
attr source  receivedPacketFromLowerLayer
vector 276  CAIN.ueD2DTx[2].nic.mac  sentPacketToLowerLayer:vector(packetBytes)  ETV
attr interpolationmode  none
attr source  sentPacketToLowerLayer
vector 1429  CAIN.ueD2DTx[7].tcp  tcpRcvQueueBytes  ETV
vector 1416  CAIN.ueD2DTx[7].tcp  "advertised window"  ETV
vector 1415  CAIN.ueD2DTx[7].tcp  "receive window"  ETV
vector 1418  CAIN.ueD2DTx[7].tcp  "sent ack"  ETV
vector 429  CAIN.ueD2DTx[7].nic.pdcpRrc  receivedPacketFromUpperLayer:vector(packetBytes)  ETV
attr interpolationmode  none
attr source  receivedPacketFromUpperLayer
vector 432  CAIN.ueD2DTx[7].nic.pdcpRrc  sentPacketToLowerLayer:vector(packetBytes)  ETV
attr interpolationmode  none
attr source  sentPacketToLowerLayer
vector 433  CAIN.ueD2DTx[7].nic.mac  receivedPacketFromUpperLayer:vector(packetBytes)  ETV
attr interpolationmode  none
attr source  receivedPacketFromUpperLayer
vector 442  CAIN.ueD2DTx[7].nic.mac  CainMessageSent:vector  ETV
attr interpolationmode  none
attr title  "# of Sent CAIN message, vector"
vector 436  CAIN.ueD2DTx[7].nic.mac  sentPacketToLowerLayer:vector(packetBytes)  ETV
attr interpolationmode  none
attr source  sentPacketToLowerLayer
vector 1453  CAIN.ueD2DTx[6].tcp  tcpRcvQueueBytes  ETV
vector 1440  CAIN.ueD2DTx[6].tcp  "advertised window"  ETV
vector 1439  CAIN.ueD2DTx[6].tcp  "receive window"  ETV
vector 1442  CAIN.ueD2DTx[6].tcp  "sent ack"  ETV
vector 397  CAIN.ueD2DTx[6].nic.pdcpRrc  receivedPacketFromUpperLayer:vector(packetBytes)  ETV
attr interpolationmode  none
attr source  receivedPacketFromUpperLayer
vector 400  CAIN.ueD2DTx[6].nic.pdcpRrc  sentPacketToLowerLayer:vector(packetBytes)  ETV
attr interpolationmode  none
attr source  sentPacketToLowerLayer
vector 401  CAIN.ueD2DTx[6].nic.mac  receivedPacketFromUpperLayer:vector(packetBytes)  ETV
attr interpolationmode  none
attr source  receivedPacketFromUpperLayer
vector 410  CAIN.ueD2DTx[6].nic.mac  CainMessageSent:vector  ETV
attr interpolationmode  none
attr title  "# of Sent CAIN message, vector"
vector 404  CAIN.ueD2DTx[6].nic.mac  sentPacketToLowerLayer:vector(packetBytes)  ETV
attr interpolationmode  none
attr source  sentPacketToLowerLayer
vector 281  CAIN.ueD2DTx[2].nic.mac  DropedHopMessage:vector  ETV
attr interpolationmode  none
attr title  "Droped Hop CAIN message due to RB not available, vector"
vector 280  CAIN.ueD2DTx[2].nic.mac  DropedCainMessage:vector  ETV
attr interpolationmode  none
attr title  "Droped CAIN message due to RB not available, vector"
vector 1477  CAIN.ueD2DTx[2].tcp  tcpRcvQueueBytes  ETV
vector 1464  CAIN.ueD2DTx[2].tcp  "advertised window"  ETV
vector 1463  CAIN.ueD2DTx[2].tcp  "receive window"  ETV
vector 1466  CAIN.ueD2DTx[2].tcp  "sent ack"  ETV
vector 269  CAIN.ueD2DTx[2].nic.pdcpRrc  receivedPacketFromUpperLayer:vector(packetBytes)  ETV
attr interpolationmode  none
attr source  receivedPacketFromUpperLayer
vector 272  CAIN.ueD2DTx[2].nic.pdcpRrc  sentPacketToLowerLayer:vector(packetBytes)  ETV
attr interpolationmode  none
attr source  sentPacketToLowerLayer
vector 273  CAIN.ueD2DTx[2].nic.mac  receivedPacketFromUpperLayer:vector(packetBytes)  ETV
attr interpolationmode  none
attr source  receivedPacketFromUpperLayer
vector 1501  CAIN.ueD2DTx[10].tcp  tcpRcvQueueBytes  ETV
vector 1488  CAIN.ueD2DTx[10].tcp  "advertised window"  ETV
vector 1487  CAIN.ueD2DTx[10].tcp  "receive window"  ETV
vector 1490  CAIN.ueD2DTx[10].tcp  "sent ack"  ETV
vector 525  CAIN.ueD2DTx[10].nic.pdcpRrc  receivedPacketFromUpperLayer:vector(packetBytes)  ETV
attr interpolationmode  none
attr source  receivedPacketFromUpperLayer
vector 528  CAIN.ueD2DTx[10].nic.pdcpRrc  sentPacketToLowerLayer:vector(packetBytes)  ETV
attr interpolationmode  none
attr source  sentPacketToLowerLayer
vector 529  CAIN.ueD2DTx[10].nic.mac  receivedPacketFromUpperLayer:vector(packetBytes)  ETV
attr interpolationmode  none
attr source  receivedPacketFromUpperLayer
vector 1525  CAIN.ueD2DTx[14].tcp  tcpRcvQueueBytes  ETV
vector 1512  CAIN.ueD2DTx[14].tcp  "advertised window"  ETV
vector 1511  CAIN.ueD2DTx[14].tcp  "receive window"  ETV
vector 1514  CAIN.ueD2DTx[14].tcp  "sent ack"  ETV
vector 653  CAIN.ueD2DTx[14].nic.pdcpRrc  receivedPacketFromUpperLayer:vector(packetBytes)  ETV
attr interpolationmode  none
attr source  receivedPacketFromUpperLayer
vector 656  CAIN.ueD2DTx[14].nic.pdcpRrc  sentPacketToLowerLayer:vector(packetBytes)  ETV
attr interpolationmode  none
attr source  sentPacketToLowerLayer
vector 657  CAIN.ueD2DTx[14].nic.mac  receivedPacketFromUpperLayer:vector(packetBytes)  ETV
attr interpolationmode  none
attr source  receivedPacketFromUpperLayer
vector 538  CAIN.ueD2DTx[10].nic.mac  CainMessageSent:vector  ETV
attr interpolationmode  none
attr title  "# of Sent CAIN message, vector"
vector 667  CAIN.ueD2DTx[14].nic.mac  CainHopMessageSent:vector  ETV
attr interpolationmode  none
attr title  "# of Sent CAIN hop message, vector"
vector 660  CAIN.ueD2DTx[14].nic.mac  sentPacketToLowerLayer:vector(packetBytes)  ETV
attr interpolationmode  none
attr source  sentPacketToLowerLayer
vector 275  CAIN.ueD2DTx[2].nic.mac  sentPacketToUpperLayer:vector(packetBytes)  ETV
attr interpolationmode  none
attr source  sentPacketToUpperLayer
vector 109  CAIN.eNodeB.nic.mac  ServedHopDevs:vector  ETV
attr interpolationmode  none
attr title  "# of devices served on hop forwarding, vector"
vector 1549  CAIN.ueD2DTx[4].tcp  tcpRcvQueueBytes  ETV
vector 1536  CAIN.ueD2DTx[4].tcp  "advertised window"  ETV
vector 1535  CAIN.ueD2DTx[4].tcp  "receive window"  ETV
vector 1538  CAIN.ueD2DTx[4].tcp  "sent ack"  ETV
vector 333  CAIN.ueD2DTx[4].nic.pdcpRrc  receivedPacketFromUpperLayer:vector(packetBytes)  ETV
attr interpolationmode  none
attr source  receivedPacketFromUpperLayer
vector 336  CAIN.ueD2DTx[4].nic.pdcpRrc  sentPacketToLowerLayer:vector(packetBytes)  ETV
attr interpolationmode  none
attr source  sentPacketToLowerLayer
vector 337  CAIN.ueD2DTx[4].nic.mac  receivedPacketFromUpperLayer:vector(packetBytes)  ETV
attr interpolationmode  none
attr source  receivedPacketFromUpperLayer
vector 115  CAIN.eNodeB.nic.phy  averageCqiUlvect:vector  ETV
attr source  averageCqiUlvect
attr title  "Average Cqi reported in UL, vector"
attr unit  cqi
vector 108  CAIN.eNodeB.nic.mac  ServedDevs:vector  ETV
attr interpolationmode  none
attr title  "# of devices served on cain forwarding, vector"
vector 443  CAIN.ueD2DTx[7].nic.mac  CainHopMessageSent:vector  ETV
attr interpolationmode  none
attr title  "# of Sent CAIN hop message, vector"
vector 539  CAIN.ueD2DTx[10].nic.mac  CainHopMessageSent:vector  ETV
attr interpolationmode  none
attr title  "# of Sent CAIN hop message, vector"
vector 97  CAIN.eNodeB.nic.mac  sentPacketToUpperLayer:vector(packetBytes)  ETV
attr interpolationmode  none
attr source  sentPacketToUpperLayer
vector 99  CAIN.eNodeB.nic.mac  measuredItbs:vector  ETV
attr source  measuredItbs
attr title  "TBS index, vector"
attr unit  ""
vector 411  CAIN.ueD2DTx[6].nic.mac  CainHopMessageSent:vector  ETV
attr interpolationmode  none
attr title  "# of Sent CAIN hop message, vector"
vector 210  CAIN.ueD2DTx[0].nic.mac  receivedPacketFromLowerLayer:vector(packetBytes)  ETV
attr interpolationmode  none
attr source  receivedPacketFromLowerLayer
vector 212  CAIN.ueD2DTx[0].nic.mac  sentPacketToLowerLayer:vector(packetBytes)  ETV
attr interpolationmode  none
attr source  sentPacketToLowerLayer
vector 339  CAIN.ueD2DTx[4].nic.mac  sentPacketToUpperLayer:vector(packetBytes)  ETV
attr interpolationmode  none
attr source  sentPacketToUpperLayer
vector 466  CAIN.ueD2DTx[8].nic.mac  receivedPacketFromLowerLayer:vector(packetBytes)  ETV
attr interpolationmode  none
attr source  receivedPacketFromLowerLayer
vector 468  CAIN.ueD2DTx[8].nic.mac  sentPacketToLowerLayer:vector(packetBytes)  ETV
attr interpolationmode  none
attr source  sentPacketToLowerLayer
vector 603  CAIN.ueD2DTx[12].nic.mac  CainHopMessageSent:vector  ETV
attr interpolationmode  none
attr title  "# of Sent CAIN hop message, vector"
vector 827  CAIN.ueD2DTx[19].nic.mac  CainHopMessageSent:vector  ETV
attr interpolationmode  none
attr title  "# of Sent CAIN hop message, vector"
vector 473  CAIN.ueD2DTx[8].nic.mac  DropedHopMessage:vector  ETV
attr interpolationmode  none
attr title  "Droped Hop CAIN message due to RB not available, vector"
vector 498  CAIN.ueD2DTx[9].nic.mac  receivedPacketFromLowerLayer:vector(packetBytes)  ETV
attr interpolationmode  none
attr source  receivedPacketFromLowerLayer
vector 500  CAIN.ueD2DTx[9].nic.mac  sentPacketToLowerLayer:vector(packetBytes)  ETV
attr interpolationmode  none
attr source  sentPacketToLowerLayer
vector 690  CAIN.ueD2DTx[15].nic.mac  receivedPacketFromLowerLayer:vector(packetBytes)  ETV
attr interpolationmode  none
attr source  receivedPacketFromLowerLayer
vector 692  CAIN.ueD2DTx[15].nic.mac  sentPacketToLowerLayer:vector(packetBytes)  ETV
attr interpolationmode  none
attr source  sentPacketToLowerLayer
vector 92  CAIN.eNodeB.nic.pdcpRrc  receivedPacketFromLowerLayer:vector(packetBytes)  ETV
attr interpolationmode  none
attr source  receivedPacketFromLowerLayer
vector 93  CAIN.eNodeB.nic.pdcpRrc  sentPacketToUpperLayer:vector(packetBytes)  ETV
attr interpolationmode  none
attr source  sentPacketToUpperLayer
vector 86  CAIN.eNodeB.udp  sentPk:vector(packetBytes)  ETV
attr interpolationmode  none
attr source  sentPk
attr title  "packets sent, vector(packetBytes)"
vector 145  CAIN.eNodeB1.udp  rcvdPk:vector(packetBytes)  ETV
attr interpolationmode  none
attr source  rcvdPk
attr title  "packets received, vector(packetBytes)"
vector 146  CAIN.eNodeB1.udp  passedUpPk:vector(count)  ETV
attr interpolationmode  none
attr title  "packets passed up, vector(count)"
vector 1573  CAIN.ueD2DTx[8].tcp  tcpRcvQueueBytes  ETV
vector 1560  CAIN.ueD2DTx[8].tcp  "advertised window"  ETV
vector 1559  CAIN.ueD2DTx[8].tcp  "receive window"  ETV
vector 1562  CAIN.ueD2DTx[8].tcp  "sent ack"  ETV
vector 461  CAIN.ueD2DTx[8].nic.pdcpRrc  receivedPacketFromUpperLayer:vector(packetBytes)  ETV
attr interpolationmode  none
attr source  receivedPacketFromUpperLayer
vector 464  CAIN.ueD2DTx[8].nic.pdcpRrc  sentPacketToLowerLayer:vector(packetBytes)  ETV
attr interpolationmode  none
attr source  sentPacketToLowerLayer
vector 465  CAIN.ueD2DTx[8].nic.mac  receivedPacketFromUpperLayer:vector(packetBytes)  ETV
attr interpolationmode  none
attr source  receivedPacketFromUpperLayer
vector 697  CAIN.ueD2DTx[15].nic.mac  DropedHopMessage:vector  ETV
attr interpolationmode  none
attr title  "Droped Hop CAIN message due to RB not available, vector"
vector 1597  CAIN.ueD2DTx[9].tcp  tcpRcvQueueBytes  ETV
vector 1584  CAIN.ueD2DTx[9].tcp  "advertised window"  ETV
vector 1583  CAIN.ueD2DTx[9].tcp  "receive window"  ETV
vector 1586  CAIN.ueD2DTx[9].tcp  "sent ack"  ETV
vector 493  CAIN.ueD2DTx[9].nic.pdcpRrc  receivedPacketFromUpperLayer:vector(packetBytes)  ETV
attr interpolationmode  none
attr source  receivedPacketFromUpperLayer
vector 496  CAIN.ueD2DTx[9].nic.pdcpRrc  sentPacketToLowerLayer:vector(packetBytes)  ETV
attr interpolationmode  none
attr source  sentPacketToLowerLayer
vector 497  CAIN.ueD2DTx[9].nic.mac  receivedPacketFromUpperLayer:vector(packetBytes)  ETV
attr interpolationmode  none
attr source  receivedPacketFromUpperLayer
vector 507  CAIN.ueD2DTx[9].nic.mac  CainHopMessageSent:vector  ETV
attr interpolationmode  none
attr title  "# of Sent CAIN hop message, vector"
vector 1621  CAIN.ueD2DTx[15].tcp  tcpRcvQueueBytes  ETV
vector 1608  CAIN.ueD2DTx[15].tcp  "advertised window"  ETV
vector 1607  CAIN.ueD2DTx[15].tcp  "receive window"  ETV
vector 1610  CAIN.ueD2DTx[15].tcp  "sent ack"  ETV
vector 685  CAIN.ueD2DTx[15].nic.pdcpRrc  receivedPacketFromUpperLayer:vector(packetBytes)  ETV
attr interpolationmode  none
attr source  receivedPacketFromUpperLayer
vector 688  CAIN.ueD2DTx[15].nic.pdcpRrc  sentPacketToLowerLayer:vector(packetBytes)  ETV
attr interpolationmode  none
attr source  sentPacketToLowerLayer
vector 689  CAIN.ueD2DTx[15].nic.mac  receivedPacketFromUpperLayer:vector(packetBytes)  ETV
attr interpolationmode  none
attr source  receivedPacketFromUpperLayer
vector 1645  CAIN.ueD2DTx[17].tcp  tcpRcvQueueBytes  ETV
vector 1632  CAIN.ueD2DTx[17].tcp  "advertised window"  ETV
vector 1631  CAIN.ueD2DTx[17].tcp  "receive window"  ETV
vector 1634  CAIN.ueD2DTx[17].tcp  "sent ack"  ETV
vector 749  CAIN.ueD2DTx[17].nic.pdcpRrc  receivedPacketFromUpperLayer:vector(packetBytes)  ETV
attr interpolationmode  none
attr source  receivedPacketFromUpperLayer
vector 752  CAIN.ueD2DTx[17].nic.pdcpRrc  sentPacketToLowerLayer:vector(packetBytes)  ETV
attr interpolationmode  none
attr source  sentPacketToLowerLayer
vector 753  CAIN.ueD2DTx[17].nic.mac  receivedPacketFromUpperLayer:vector(packetBytes)  ETV
attr interpolationmode  none
attr source  receivedPacketFromUpperLayer
vector 1669  CAIN.ueD2DTx[0].tcp  tcpRcvQueueBytes  ETV
vector 1656  CAIN.ueD2DTx[0].tcp  "advertised window"  ETV
vector 1655  CAIN.ueD2DTx[0].tcp  "receive window"  ETV
vector 1658  CAIN.ueD2DTx[0].tcp  "sent ack"  ETV
vector 205  CAIN.ueD2DTx[0].nic.pdcpRrc  receivedPacketFromUpperLayer:vector(packetBytes)  ETV
attr interpolationmode  none
attr source  receivedPacketFromUpperLayer
vector 208  CAIN.ueD2DTx[0].nic.pdcpRrc  sentPacketToLowerLayer:vector(packetBytes)  ETV
attr interpolationmode  none
attr source  sentPacketToLowerLayer
vector 209  CAIN.ueD2DTx[0].nic.mac  receivedPacketFromUpperLayer:vector(packetBytes)  ETV
attr interpolationmode  none
attr source  receivedPacketFromUpperLayer
vector 218  CAIN.ueD2DTx[0].nic.mac  CainMessageSent:vector  ETV
attr interpolationmode  none
attr title  "# of Sent CAIN message, vector"
vector 763  CAIN.ueD2DTx[17].nic.mac  CainHopMessageSent:vector  ETV
attr interpolationmode  none
attr title  "# of Sent CAIN hop message, vector"
vector 756  CAIN.ueD2DTx[17].nic.mac  sentPacketToLowerLayer:vector(packetBytes)  ETV
attr interpolationmode  none
attr source  sentPacketToLowerLayer
vector 149  CAIN.eNodeB1.nic.pdcpRrc  receivedPacketFromUpperLayer:vector(packetBytes)  ETV
attr interpolationmode  none
attr source  receivedPacketFromUpperLayer
vector 152  CAIN.eNodeB1.nic.pdcpRrc  sentPacketToLowerLayer:vector(packetBytes)  ETV
attr interpolationmode  none
attr source  sentPacketToLowerLayer
vector 1301  CAIN.eNodeB1.sctp  "SendQueue of Association 5"  ETV
vector 1065  CAIN.eNodeB1.sctp  "TSN Sent 5:10.0.5.1"  ETV
vector 1072  CAIN.eNodeB1.sctp  "Outstanding Bytes 5:10.0.5.1"  ETV
vector 870  CAIN.eNodeB1.sctp  "Outstanding Bytes 4:Total"  ETV
vector 1071  CAIN.eNodeB1.sctp  "Queued Sent Bytes 5:10.0.5.1"  ETV
vector 869  CAIN.eNodeB1.sctp  "Queued Sent Bytes 4:Total"  ETV
vector 153  CAIN.eNodeB1.nic.mac  receivedPacketFromUpperLayer:vector(packetBytes)  ETV
attr interpolationmode  none
attr source  receivedPacketFromUpperLayer
8	42925 8 0 0 0 0 1 0 0 0 0
9	42933 8 0 0 0 0 1 0 0 0 0
24	42941 9 0 0 0 0 1 0 0 0 0
25	42950 9 0 0 0 0 1 0 0 0 0
35	42959 9 0 0 0 0 1 0 0 0 0
36	42968 9 0 0 0 0 1 0 0 0 0
56	42977 9 0 0 0 0 1 0 0 0 0
57	42986 9 0 0 0 0 1 0 0 0 0
67	42995 9 0 0 0 0 1 0 0 0 0
68	43004 9 0 0 0 0 1 0 0 0 0
78	43013 9 0 0 0 0 1 0 0 0 0
79	43022 9 0 0 0 0 1 0 0 0 0
86	43031 34 2977 3404 0.047 0.052 2 52 52 104 5408
92	43065 34 2970 3397 0.047 0.052 2 45 45 90 4050
93	43099 34 2970 3397 0.047 0.052 2 44 44 88 3872
96	43133 2565 382 3837 0.002 0.056 163 0 0 0 0
97	45698 82 2532 3393 0.041 0.052 5 5 44 100 3692
98	45780 1306 1136 3831 0.016 0.056 82 0 0 0 0
99	47086 64 2532 3328 0.041 0.051 4 0 0 0 0
100	47150 387 1136 3822 0.016 0.056 22 1 22 253 3795
101	47537 618 1142 3831 0.016 0.056 35 1 35 630 14910
106	48155 1436 1136 3837 0.016 0.056 75 398 1027 56033 44250723
108	49591 84 2478 2792 0.039 0.043 5 5 5 25 125
109	49675 230 2361 3837 0.037 0.056 13 5 12 130 1350
111	49905 1462 1136 3837 0.016 0.056 82 1 82 3403 187165
112	51367 1553 1136 3837 0.016 0.056 82 114 634 31619 13948733
113	52920 1389 1136 3837 0.016 0.056 82 0 0 0 0
115	54309 119 2420 3529 0.038 0.053 7 2 4 16 40
120	54428 10 0 0 0 0 1 0 0 0 0
121	54438 10 0 0 0 0 1 0 0 0 0
128	54448 352 139 3406 0 0.052 16 36 292 1272 165472
130	54800 373 139 3406 0 0.052 16 0 8.8e-08 3.088e-07 1.946112e-14
131	55173 280 0 258 0 0.0000007124 13 0 2 10 14
132	55453 712 0 3467 0 0.0520000632 33 0 1 16 16
133	56165 354 141 3407 0 0.052 16 43 299 1384 184064
134	56519 311 146 669 0.0000001228 0.0070001912 13 43 171 923 81725
137	56830 354 141 3407 0 0.052 16 36 292 1272 165472
138	57184 311 146 669 0.0000001228 0.0070001912 13 36 164 832 69440
145	57495 50 3047 3470 0.0470001132 0.0520001132 2 52 52 104 5408
146	57545 48 3047 3470 0.0470001132 0.0520001132 2 1 2 3 5
149	57593 36 3853 3854 0.057 0.057 2 44 44 88 3872
152	57629 36 3853 3854 0.057 0.057 2 45 45 90 4050
153	57665 36 3901 3902 0.057 0.057 2 45 45 90 4050
178	57701 10 0 0 0 0 1 0 0 0 0
179	57711 10 0 0 0 0 1 0 0 0 0
186	57721 316 140 3903 0 0.057 14 36 164 884 72144
188	58037 340 140 3903 0 0.057 14 0 8.8e-08 3.088e-07 1.946112e-14
189	58377 280 0 257 0 0.0000007124 13 0 2 10 14
190	58657 608 0 3904 0 0.057 28 0 1 14 14
191	59265 318 142 3904 0 0.057 14 43 171 982 85206
192	59583 386 145 3468 0.0000001228 0.0520001132 16 43 299 1384 184064
195	59969 318 142 3904 0 0.057 14 36 164 884 72144
196	60287 386 145 3468 0.0000001228 0.0520001132 16 36 292 1272 165472
199	60673 322 664 717 0.0070000972 0.0070004804 14 2 2 28 56
205	60995 27 3486 3486 0.052847558425 0.052847558425 1 44 44 44 1936
208	61022 27 3486 3486 0.052847558425 0.052847558425 1 45 45 45 2025
209	61049 27 3489 3489 0.052847558425 0.052847558425 1 45 45 45 2025
210	61076 186 2568 3442 0.041 0.052 11 0 0 0 0
212	61262 203 2568 3492 0.041 0.053 12 0 0 0 0
218	61465 17 3492 3492 0.053 0.053 1 1 1 1 1
231	61482 27 0 3838 0 0.057 2 1 2 3 5
263	61509 27 0 3839 0 0.057 2 1 2 3 5
269	61536 27 2038 2038 0.032546852513 0.032546852513 1 44 44 44 1936
272	61563 27 2038 2038 0.032546852513 0.032546852513 1 45 45 45 2025
273	61590 79 2041 2744 0.032546852513 0.043 4 5 45 96 3756
274	61669 526 1527 3115 0.024 0.048 31 0 0 0 0
275	62195 51 2313 2740 0.037 0.043 3 0 0 0 0
276	62246 357 1527 2768 0.024 0.043 21 0 0 0 0
280	62603 68 1778 2116 0.028 0.034 4 1 4 10 30
281	62671 34 1704 1976 0.026 0.031 2 1 2 3 5
295	62705 27 0 3840 0 0.057 2 1 2 3 5
327	62732 27 0 3841 0 0.057 2 1 2 3 5
333	62759 27 2366 2366 0.037261432968 0.037261432968 1 44 44 44 1936
336	62786 27 2366 2366 0.037261432968 0.037261432968 1 45 45 45 2025
337	62813 79 2369 3089 0.037261432968 0.048 4 0 45 94 3986
338	62892 1094 1101 3834 0.015 0.056 65 0 0 0 0
339	63986 51 2618 3085 0.042 0.048 3 0 0 0 0
340	64037 755 1101 3834 0.015 0.056 45 0 0 0 0
344	64792 171 1171 2357 0.017 0.037 10 1 10 55 385
345	64963 102 1175 2482 0.017 0.039 6 1 6 21 91
359	65065 10 0 0 0 0 1 1 1 1 1
391	65075 27 0 3842 0 0.057 2 1 2 3 5
397	65102 27 1642 1642 0.025271030879 0.025271030879 1 44 44 44 1936
400	65129 27 1642 1642 0.025271030879 0.025271030879 1 45 45 45 2025
401	65156 27 1645 1645 0.025271030879 0.025271030879 1 45 45 45 2025
404	65183 119 1654 3765 0.026 0.056 7 0 0 0 0
410	65302 51 1654 2205 0.026 0.036 3 1 3 6 14
411	65353 68 2544 3765 0.041 0.056 4 1 4 10 30
423	65421 27 0 3843 0 0.057 2 1 2 3 5
429	65448 27 1533 1533 0.024352218178 0.024352218178 1 44 44 44 1936
432	65475 27 1533 1533 0.024352218178 0.024352218178 1 45 45 45 2025
433	65502 27 1536 1536 0.024352218178 0.024352218178 1 45 45 45 2025
436	65529 116 1608 3702 0.025 0.055 7 0 0 0 0
442	65645 50 1608 2143 0.025 0.035 3 1 3 6 14
443	65695 66 2494 3702 0.04 0.055 4 1 4 10 30
455	65761 27 0 3844 0 0.057 2 1 2 3 5
461	65788 27 3055 3055 0.047532676856 0.047532676856 1 44 44 44 1936
464	65815 27 3055 3055 0.047532676856 0.047532676856 1 45 45 45 2025
465	65842 27 3058 3058 0.047532676856 0.047532676856 1 45 45 45 2025
466	65869 491 2655 3934 0.042 0.057 29 0 0 0 0
468	66360 357 2655 3825 0.042 0.056 21 0 0 0 0
473	66717 101 2856 3325 0.044 0.05 6 1 6 21 91
487	66818 27 0 3845 0 0.057 2 1 2 3 5
493	66845 27 3143 3143 0.048413756283 0.048413756283 1 44 44 44 1936
496	66872 27 3143 3143 0.048413756283 0.048413756283 1 45 45 45 2025
497	66899 27 3146 3146 0.048413756283 0.048413756283 1 45 45 45 2025
498	66926 66 2893 3314 0.045 0.05 4 0 0 0 0
500	66992 100 2893 3583 0.045 0.054 6 0 0 0 0
507	67092 34 3220 3583 0.049 0.054 2 1 2 3 5
519	67126 10 0 0 0 0 1 1 1 1 1
525	67136 27 2121 2121 0.034129833705 0.034129833705 1 44 44 44 1936
528	67163 27 2121 2121 0.034129833705 0.034129833705 1 45 45 45 2025
529	67190 27 2124 2124 0.034129833705 0.034129833705 1 45 45 45 2025
530	67217 68 1473 2418 0.023 0.038 4 0 0 0 0
532	67285 151 1473 3706 0.023 0.055 9 0 0 0 0
538	67436 17 2147 2147 0.035 0.035 1 1 1 1 1
539	67453 66 2498 3706 0.04 0.055 4 1 4 10 30
551	67519 27 0 3846 0 0.057 2 1 2 3 5
557	67546 27 1408 1408 0.021843716542 0.021843716542 1 44 44 44 1936
560	67573 27 1408 1408 0.021843716542 0.021843716542 1 45 45 45 2025
561	67600 27 1411 1411 0.021843716542 0.021843716542 1 45 45 45 2025
564	67627 119 1425 3420 0.022 0.052 7 0 0 0 0
571	67746 119 1425 3420 0.022 0.052 7 1 7 28 140
583	67865 27 0 3847 0 0.057 2 1 2 3 5
589	67892 27 1021 1021 0.013528948517 0.013528948517 1 44 44 44 1936
592	67919 27 1021 1021 0.013528948517 0.013528948517 1 45 45 45 2025
593	67946 27 1024 1024 0.013528948517 0.013528948517 1 45 45 45 2025
594	67973 306 1072 3813 0.014 0.056 18 0 0 0 0
596	68279 459 1039 3813 0.014 0.056 27 0 0 0 0
602	68738 119 1039 3587 0.014 0.054 7 1 7 28 140
603	68857 34 2809 3224 0.044 0.049 2 1 2 3 5
615	68891 10 0 0 0 0 1 1 1 1 1
621	68901 26 916 916 0.012270864309 0.012270864309 1 44 44 44 1936
624	68927 26 916 916 0.012270864309 0.012270864309 1 45 45 45 2025
625	68953 26 919 919 0.012270864309 0.012270864309 1 45 45 45 2025
628	68979 152 997 3507 0.013 0.053 9 0 0 0 0
635	69131 152 997 3507 0.013 0.053 9 1 9 45 285
647	69283 27 0 3848 0 0.057 2 1 2 3 5
653	69310 27 2129 2129 0.034439526021 0.034439526021 1 44 44 44 1936
656	69337 27 2129 2129 0.034439526021 0.034439526021 1 45 45 45 2025
657	69364 27 2132 2132 0.034439526021 0.034439526021 1 45 45 45 2025
660	69391 83 2152 3711 0.035 0.055 5 0 0 0 0
667	69474 83 2152 3711 0.035 0.055 5 1 5 15 55
679	69557 27 0 3849 0 0.057 2 1 2 3 5
685	69584 27 3389 3389 0.051566809383 0.051566809383 1 44 44 44 1936
688	69611 27 3389 3389 0.051566809383 0.051566809383 1 45 45 45 2025
689	69638 27 3392 3392 0.051566809383 0.051566809383 1 45 45 45 2025
690	69665 221 2955 3816 0.046 0.056 13 0 0 0 0
692	69886 153 2955 3922 0.046 0.057 9 0 0 0 0
697	70039 85 3134 3548 0.048 0.053 5 1 5 15 55
711	70124 10 0 0 0 0 1 1 1 1 1
743	70134 27 0 3850 0 0.057 2 1 2 3 5
749	70161 26 3478 3478 0.05273845314 0.05273845314 1 44 44 44 1936
752	70187 26 3478 3478 0.05273845314 0.05273845314 1 45 45 45 2025
753	70213 26 3481 3481 0.05273845314 0.05273845314 1 45 45 45 2025
756	70239 17 3512 3512 0.053 0.053 1 0 0 0 0
763	70256 17 3512 3512 0.053 0.053 1 1 1 1 1
775	70273 27 0 3851 0 0.057 2 1 2 3 5
807	70300 10 0 0 0 0 1 1 1 1 1
813	70310 27 1013 1013 0.013169782835 0.013169782835 1 44 44 44 1936
816	70337 27 1013 1013 0.013169782835 0.013169782835 1 45 45 45 2025
817	70364 27 1016 1016 0.013169782835 0.013169782835 1 45 45 45 2025
820	70391 153 1047 3595 0.014 0.054 9 0 0 0 0
826	70544 119 1047 3595 0.014 0.054 7 1 7 28 140
827	70663 34 2817 3232 0.044 0.049 2 1 2 3 5
839	70697 10 0 0 0 0 1 1 1 1 1
847	70707 347 613 671 0.007 0.0070001912 15 0 26 184 3280
848	71054 347 613 671 0.007 0.0070001912 15 0 26 184 3280
849	71401 23 671 671 0.0070001912 0.0070001912 1 0 0 0 0
850	71424 23 671 671 0.0070001912 0.0070001912 1 0 0 0 0
859	71447 27 671 671 0.0070001912 0.0070001912 1 65533 65533 65533 4294574089
860	71474 54 150 671 0.0000001228 0.0070001912 2 65533 65535 131068 8589410314
863	71528 12 123 123 0 0 1 0 0 0 0
869	71540 17 3884 3884 0.057 0.057 1 2 2 2 4
870	71557 17 3884 3884 0.057 0.057 1 2 2 2 4
882	71574 27 149 149 0.0000001228 0.0000001228 1 65535 65535 65535 4294836225
885	71601 12 128 128 0 0 1 0 0 0 0
904	71613 27 163 163 0.0000003096 0.0000003096 1 65535 65535 65535 4294836225
907	71640 12 131 131 0 0 1 0 0 0 0
908	71652 46 235 302 0.0000006304 0.0000008564 2 1 3 4 10
909	71698 30 302 302 0.0000008564 0.0000008564 1 2.26e-07 2.26e-07 2.26e-07 5.1076e-14
910	71728 27 235 235 0.0000006304 0.0000006304 1 65535 65535 65535 4294836225
911	71755 26 235 235 0.0000006304 0.0000006304 1 8940 8940 8940 79923600
912	71781 28 235 235 0.0000006304 0.0000006304 1 0.3725 0.3725 0.3725 0.13875625
916	71809 44 207 221 0.000000552 0.000000596 2 1 2 3 5
917	71853 44 207 221 0.000000552 0.000000596 2 1 2 3 5
918	71897 46 302 308 0.0000008564 0.0000009004 2 1 2 3 5
927	71943 12 131 131 0 0 1 0 0 0 0
935	71955 27 659 659 0.0070000972 0.0070000972 1 65533 65533 65533 4294574089
939	71982 346 659 704 0.0070000972 0.0070004804 15 0 26 30 684
944	72328 23 659 659 0.0070000972 0.0070000972 1 0 0 0 0
945	72351 23 659 659 0.0070000972 0.0070000972 1 0 0 0 0
946	72374 23 659 659 0.0070000972 0.0070000972 1 0 0 0 0
947	72397 23 659 659 0.0070000972 0.0070000972 1 0 0 0 0
948	72420 23 659 659 0.0070000972 0.0070000972 1 0 0 0 0
949	72443 23 659 659 0.0070000972 0.0070000972 1 0 0 0 0
950	72466 23 659 659 0.0070000972 0.0070000972 1 0 0 0 0
951	72489 24 659 659 0.0070000972 0.0070000972 1 16 16 16 256
953	72513 27 164 164 0.0000003096 0.0000003096 1 65535 65535 65535 4294836225
955	72540 433 662 692 0.0070000972 0.0070004804 14 9.72e-08 2.892e-07 3.8568e-06 1.09672416e-12
956	72973 12 132 132 0 0 1 0 0 0 0
957	72985 46 236 301 0.0000006304 0.0000008564 2 1 3 4 10
958	73031 30 301 301 0.0000008564 0.0000008564 1 2.26e-07 2.26e-07 2.26e-07 5.1076e-14
959	73061 27 236 236 0.0000006304 0.0000006304 1 65535 65535 65535 4294836225
960	73088 26 236 236 0.0000006304 0.0000006304 1 8940 8940 8940 79923600
961	73114 28 236 236 0.0000006304 0.0000006304 1 0.3725 0.3725 0.3725 0.13875625
963	73142 364 659 678 0.0070000972 0.0070004804 14 2000 2013 28091 56364819
965	73506 44 208 222 0.000000552 0.000000596 2 1 2 3 5
966	73550 44 208 222 0.000000552 0.000000596 2 1 2 3 5
967	73594 46 301 307 0.0000008564 0.0000009004 2 1 2 3 5
976	73640 12 132 132 0 0 1 0 0 0 0
1005	73652 24 149 149 0.0000001228 0.0000001228 1 0 0 0 0
1006	73676 23 177 177 0.000000458 0.000000458 1 3 3 3 9
1008	73699 27 177 177 0.000000458 0.000000458 1 65535 65535 65535 4294836225
1009	73726 26 177 177 0.000000458 0.000000458 1 8940 8940 8940 79923600
1010	73752 28 177 177 0.000000458 0.000000458 1 0.3725 0.3725 0.3725 0.13875625
1013	73780 23 177 177 0.000000458 0.000000458 1 1 1 1 1
1025	73803 24 149 149 0.0000001228 0.0000001228 1 0 0 0 0
1033	73827 23 177 177 0.000000458 0.000000458 1 3 3 3 9
1035	73850 27 177 177 0.000000458 0.000000458 1 65535 65535 65535 4294836225
1036	73877 26 177 177 0.000000458 0.000000458 1 8940 8940 8940 79923600
1037	73903 28 177 177 0.000000458 0.000000458 1 0.3725 0.3725 0.3725 0.13875625
1040	73931 23 177 177 0.000000458 0.000000458 1 1 1 1 1
1052	73954 24 149 149 0.0000001228 0.0000001228 1 0 0 0 0
1060	73978 47 177 256 0.000000458 0.0000006744 2 1 3 4 10
1061	74025 32 256 256 0.0000006744 0.0000006744 1 2.164e-07 2.164e-07 2.164e-07 4.682896e-14
1062	74057 27 177 177 0.000000458 0.000000458 1 65535 65535 65535 4294836225
1063	74084 26 177 177 0.000000458 0.000000458 1 8940 8940 8940 79923600
1064	74110 28 177 177 0.000000458 0.000000458 1 0.3725 0.3725 0.3725 0.13875625
1065	74138 21 3884 3884 0.057 0.057 1 2000 2000 2000 4000000
1068	74159 48 274 288 0.0000007624 0.0000008064 2 1 2 3 5
1069	74207 48 274 288 0.0000007624 0.0000008064 2 1 2 3 5
1070	74255 48 256 266 0.0000006744 0.0000007184 2 1 2 3 5
1071	74303 18 3884 3884 0.057 0.057 1 2 2 2 4
1072	74321 18 3884 3884 0.057 0.057 1 2 2 2 4
1079	74339 24 149 149 0.0000001228 0.0000001228 1 0 0 0 0
1108	74363 24 150 150 0.0000001228 0.0000001228 1 0 0 0 0
1109	74387 23 178 178 0.000000458 0.000000458 1 3 3 3 9
1111	74410 27 178 178 0.000000458 0.000000458 1 65535 65535 65535 4294836225
1112	74437 26 178 178 0.000000458 0.000000458 1 8940 8940 8940 79923600
1113	74463 28 178 178 0.000000458 0.000000458 1 0.3725 0.3725 0.3725 0.13875625
1116	74491 23 178 178 0.000000458 0.000000458 1 1 1 1 1
1124	74514 24 671 671 0.0070001912 0.0070001912 1 0 0 0 0
1125	74538 24 671 671 0.0070001912 0.0070001912 1 0 0 0 0
1126	74562 24 671 671 0.0070001912 0.0070001912 1 0 0 0 0
1128	74586 24 150 150 0.0000001228 0.0000001228 1 0 0 0 0
1136	74610 23 178 178 0.000000458 0.000000458 1 3 3 3 9
1138	74633 27 178 178 0.000000458 0.000000458 1 65535 65535 65535 4294836225
1139	74660 26 178 178 0.000000458 0.000000458 1 8940 8940 8940 79923600
1140	74686 28 178 178 0.000000458 0.000000458 1 0.3725 0.3725 0.3725 0.13875625
1143	74714 23 178 178 0.000000458 0.000000458 1 1 1 1 1
1151	74737 24 671 671 0.0070001912 0.0070001912 1 0 0 0 0
1152	74761 24 671 671 0.0070001912 0.0070001912 1 0 0 0 0
1153	74785 24 671 671 0.0070001912 0.0070001912 1 0 0 0 0
1155	74809 24 150 150 0.0000001228 0.0000001228 1 0 0 0 0
1163	74833 71 178 671 0.000000458 0.0070001912 3 1 3 5 11
1164	74904 64 255 671 0.0000006744 0.0070001912 2 1.912e-07 2.164e-07 4.076e-07 8.33864e-14
1165	74968 27 178 178 0.000000458 0.000000458 1 65535 65535 65535 4294836225
1166	74995 26 178 178 0.000000458 0.000000458 1 8940 8940 8940 79923600
1167	75021 28 178 178 0.000000458 0.000000458 1 0.3725 0.3725 0.3725 0.13875625
1168	75049 371 613 671 0.007 0.0070001912 14 2000 2013 28091 56364819
1171	75420 48 273 287 0.0000007624 0.0000008064 2 1 2 3 5
1172	75468 48 273 287 0.0000007624 0.0000008064 2 1 2 3 5
1173	75516 48 255 265 0.0000006744 0.0000007184 2 1 2 3 5
1174	75564 362 613 671 0.007 0.0070001912 15 0 26 184 3280
1175	75926 362 613 671 0.007 0.0070001912 15 0 26 184 3280
1178	76288 24 671 671 0.0070001912 0.0070001912 1 0 0 0 0
1179	76312 24 671 671 0.0070001912 0.0070001912 1 0 0 0 0
1180	76336 24 671 671 0.0070001912 0.0070001912 1 0 0 0 0
1181	76360 24 671 671 0.0070001912 0.0070001912 1 0 0 0 0
1182	76384 24 150 150 0.0000001228 0.0000001228 1 0 0 0 0
1185	76408 27 671 671 0.0070001912 0.0070001912 1 2000 2000 2000 4000000
1187	76435 24 671 671 0.0070001912 0.0070001912 1 0 0 0 0
1188	76459 24 671 671 0.0070001912 0.0070001912 1 0 0 0 0
1190	76483 24 235 235 0.0000006304 0.0000006304 1 3 3 3 9
1192	76507 28 235 235 0.0000006304 0.0000006304 1 65535 65535 65535 4294836225
1193	76535 27 235 235 0.0000006304 0.0000006304 1 8940 8940 8940 79923600
1194	76562 29 235 235 0.0000006304 0.0000006304 1 0.3725 0.3725 0.3725 0.13875625
1197	76591 24 235 235 0.0000006304 0.0000006304 1 1 1 1 1
1209	76615 24 163 163 0.0000003096 0.0000003096 1 0 0 0 0
1217	76639 24 235 235 0.0000006304 0.0000006304 1 3 3 3 9
1219	76663 28 235 235 0.0000006304 0.0000006304 1 65535 65535 65535 4294836225
1220	76691 27 235 235 0.0000006304 0.0000006304 1 8940 8940 8940 79923600
1221	76718 29 235 235 0.0000006304 0.0000006304 1 0.3725 0.3725 0.3725 0.13875625
1224	76747 24 235 235 0.0000006304 0.0000006304 1 1 1 1 1
1236	76771 24 163 163 0.0000003096 0.0000003096 1 0 0 0 0
1244	76795 24 236 236 0.0000006304 0.0000006304 1 3 3 3 9
1246	76819 28 236 236 0.0000006304 0.0000006304 1 65535 65535 65535 4294836225
1247	76847 27 236 236 0.0000006304 0.0000006304 1 8940 8940 8940 79923600
1248	76874 29 236 236 0.0000006304 0.0000006304 1 0.3725 0.3725 0.3725 0.13875625
1251	76903 24 236 236 0.0000006304 0.0000006304 1 1 1 1 1
1263	76927 24 164 164 0.0000003096 0.0000003096 1 0 0 0 0
1271	76951 24 236 236 0.0000006304 0.0000006304 1 3 3 3 9
1273	76975 28 236 236 0.0000006304 0.0000006304 1 65535 65535 65535 4294836225
1274	77003 27 236 236 0.0000006304 0.0000006304 1 8940 8940 8940 79923600
1275	77030 29 236 236 0.0000006304 0.0000006304 1 0.3725 0.3725 0.3725 0.13875625
1278	77059 24 236 236 0.0000006304 0.0000006304 1 1 1 1 1
1290	77083 24 164 164 0.0000003096 0.0000003096 1 0 0 0 0
1301	77107 274 3884 3899 0.057 0.057 15 0 13 92 820
1304	77381 24 671 671 0.0070001912 0.0070001912 1 0 0 0 0
1305	77405 2692 613 3691 0.007 0.055 140 0 112 6498 476070
1319	80097 29 913 913 0.012270864309 0.012270864309 1 7504 7504 7504 56310016
1320	80126 29 913 913 0.012270864309 0.012270864309 1 7504 7504 7504 56310016
1322	80155 26 913 913 0.012270864309 0.012270864309 1 0 0 0 0
1333	80181 26 913 913 0.012270864309 0.012270864309 1 0 0 0 0
1343	80207 30 1010 1010 0.013169782835 0.013169782835 1 7504 7504 7504 56310016
1344	80237 30 1010 1010 0.013169782835 0.013169782835 1 7504 7504 7504 56310016
1346	80267 27 1010 1010 0.013169782835 0.013169782835 1 0 0 0 0
1357	80294 27 1010 1010 0.013169782835 0.013169782835 1 0 0 0 0
1367	80321 30 1018 1018 0.013528948517 0.013528948517 1 7504 7504 7504 56310016
1368	80351 30 1018 1018 0.013528948517 0.013528948517 1 7504 7504 7504 56310016
1370	80381 27 1018 1018 0.013528948517 0.013528948517 1 0 0 0 0
1381	80408 27 1018 1018 0.013528948517 0.013528948517 1 0 0 0 0
1391	80435 30 1405 1405 0.021843716542 0.021843716542 1 7504 7504 7504 56310016
1392	80465 30 1405 1405 0.021843716542 0.021843716542 1 7504 7504 7504 56310016
1394	80495 27 1405 1405 0.021843716542 0.021843716542 1 0 0 0 0
1405	80522 27 1405 1405 0.021843716542 0.021843716542 1 0 0 0 0
1415	80549 30 1530 1530 0.024352218178 0.024352218178 1 7504 7504 7504 56310016
1416	80579 30 1530 1530 0.024352218178 0.024352218178 1 7504 7504 7504 56310016
1418	80609 27 1530 1530 0.024352218178 0.024352218178 1 0 0 0 0
1429	80636 27 1530 1530 0.024352218178 0.024352218178 1 0 0 0 0
1439	80663 30 1639 1639 0.025271030879 0.025271030879 1 7504 7504 7504 56310016
1440	80693 30 1639 1639 0.025271030879 0.025271030879 1 7504 7504 7504 56310016
1442	80723 27 1639 1639 0.025271030879 0.025271030879 1 0 0 0 0
1453	80750 27 1639 1639 0.025271030879 0.025271030879 1 0 0 0 0
1463	80777 30 2035 2035 0.032546852513 0.032546852513 1 7504 7504 7504 56310016
1464	80807 30 2035 2035 0.032546852513 0.032546852513 1 7504 7504 7504 56310016
1466	80837 27 2035 2035 0.032546852513 0.032546852513 1 0 0 0 0
1477	80864 27 2035 2035 0.032546852513 0.032546852513 1 0 0 0 0
1487	80891 30 2118 2118 0.034129833705 0.034129833705 1 7504 7504 7504 56310016
1488	80921 30 2118 2118 0.034129833705 0.034129833705 1 7504 7504 7504 56310016
1490	80951 27 2118 2118 0.034129833705 0.034129833705 1 0 0 0 0
1501	80978 27 2118 2118 0.034129833705 0.034129833705 1 0 0 0 0
1511	81005 30 2126 2126 0.034439526021 0.034439526021 1 7504 7504 7504 56310016
1512	81035 30 2126 2126 0.034439526021 0.034439526021 1 7504 7504 7504 56310016
1514	81065 27 2126 2126 0.034439526021 0.034439526021 1 0 0 0 0
1525	81092 27 2126 2126 0.034439526021 0.034439526021 1 0 0 0 0
1535	81119 30 2363 2363 0.037261432968 0.037261432968 1 7504 7504 7504 56310016
1536	81149 30 2363 2363 0.037261432968 0.037261432968 1 7504 7504 7504 56310016
1538	81179 27 2363 2363 0.037261432968 0.037261432968 1 0 0 0 0
1549	81206 27 2363 2363 0.037261432968 0.037261432968 1 0 0 0 0
1559	81233 30 3052 3052 0.047532676856 0.047532676856 1 7504 7504 7504 56310016
1560	81263 30 3052 3052 0.047532676856 0.047532676856 1 7504 7504 7504 56310016
1562	81293 27 3052 3052 0.047532676856 0.047532676856 1 0 0 0 0
1573	81320 27 3052 3052 0.047532676856 0.047532676856 1 0 0 0 0
1583	81347 30 3140 3140 0.048413756283 0.048413756283 1 7504 7504 7504 56310016
1584	81377 30 3140 3140 0.048413756283 0.048413756283 1 7504 7504 7504 56310016
1586	81407 27 3140 3140 0.048413756283 0.048413756283 1 0 0 0 0
1597	81434 27 3140 3140 0.048413756283 0.048413756283 1 0 0 0 0
1607	81461 30 3386 3386 0.051566809383 0.051566809383 1 7504 7504 7504 56310016
1608	81491 30 3386 3386 0.051566809383 0.051566809383 1 7504 7504 7504 56310016
1610	81521 27 3386 3386 0.051566809383 0.051566809383 1 0 0 0 0
1621	81548 27 3386 3386 0.051566809383 0.051566809383 1 0 0 0 0
1631	81575 29 3475 3475 0.05273845314 0.05273845314 1 7504 7504 7504 56310016
1632	81604 29 3475 3475 0.05273845314 0.05273845314 1 7504 7504 7504 56310016
1634	81633 26 3475 3475 0.05273845314 0.05273845314 1 0 0 0 0
1645	81659 26 3475 3475 0.05273845314 0.05273845314 1 0 0 0 0
1655	81685 30 3483 3483 0.052847558425 0.052847558425 1 7504 7504 7504 56310016
1656	81715 30 3483 3483 0.052847558425 0.052847558425 1 7504 7504 7504 56310016
1658	81745 27 3483 3483 0.052847558425 0.052847558425 1 0 0 0 0
1669	81772 27 3483 3483 0.052847558425 0.052847558425 1 0 0 0 0
