file 5404001 1588966311                                         
version 2
run CAIN-67-20200508-16:20:21-12232
attr configname CAIN
attr datetime 20200508-16:20:21
attr dist 200
attr experiment CAIN
attr extAllocType "\"RANDOM_ALLOC\""
attr inifile omnetpp.ini
attr iterationvars "$numUe=20, $pwr=-50, $dist=200, $mob=\"./movements/RWPRPGM-0.0.movements\", $extAllocType=\"RANDOM_ALLOC\""
attr iterationvars2 "$numUe=20, $pwr=-50, $dist=200, $mob=\"./movements/RWPRPGM-0.0.movements\", $extAllocType=\"RANDOM_ALLOC\", $repetition=2"
attr measurement "$numUe=20, $pwr=-50, $dist=200, $mob=\"./movements/RWPRPGM-0.0.movements\", $extAllocType=\"RANDOM_ALLOC\""
attr mob "\"./movements/RWPRPGM-0.0.movements\""
attr network lte.simulations.networks.CAIN
attr numUe 20
attr processid 12232
attr pwr -50
attr repetition 2
attr replication #2
attr resultdir results
attr runnumber 67
attr seedset 2
param **.**.amcMode "\"AUTO\""
param **.amcMode "\"D2D\""
param **.cainNetwork true
param **.channelControl.alpha 1.0
param **.channelControl.carrierFrequency 2100e+6Hz
param **.channelControl.pMax 10W
param **.d2dCqi 7
param **.deployer.numRbDl 50
param **.deployer.numRbUl 50
param **.distThresh ${dist=200}
param **.fbDelay 1
param **.feedbackComputation "xmldoc(\"config_channel.xml\")"
param **.mobility.constraintAreaMaxX 1000m
param **.mobility.constraintAreaMaxY 1000m
param **.mobility.constraintAreaMaxZ 0m
param **.mobility.constraintAreaMinX 0m
param **.mobility.constraintAreaMinY 0m
param **.mobility.constraintAreaMinZ 0m
param **.nic.phy.channelModel "xmldoc(\"config_channel.xml\")"
param **.numBands 50
param **.pwrThresh "${pwr= -50}"
param **.qtdThresh 3
param **.rbAllocationType "\"localized\""
param **.routingRecorder.enabled false
param **.tcpApp[*].tClose -1s
param **.ueD2DTx[*].mobility.changeAngleBy "normal(0deg, 30deg)"
param **.ueD2DTx[*].mobility.changeInterval "normal(5s, 0.1s)"
param **.ueD2DTx[*].mobility.nodeId -1
param **.ueD2DTx[*].mobility.speed "normal(2mps, 0.01mps)"
param **.ueD2DTx[*].mobility.traceFile "${mob=\"./movements/RWP-0.0.movements\",\"./movements/RWP-0.5.movements\",\"./movements/RPGM-0.0.movements\",\"./movements/RPGM-0.5.movements\",\"./movements/RWPRPGM-0.0.movements\",\"./movements/RWPRPGM-0.5.movements\"}"
param **.ueD2DTx[*].mobilityType "\"BonnMotionMobility\""
param **.usePreconfiguredTxParams false
param *.eNodeB*.numX2Apps 1
param *.eNodeB*.x2App[*].server.localPort "5000 + ancestorIndex(1)"
param *.eNodeB.d2dCapable false
param *.eNodeB.mobility.initFromDisplayString false
param *.eNodeB.mobility.initialX 300m
param *.eNodeB.mobility.initialY 300m
param *.eNodeB.nic.phy.enableD2DCqiReporting true
param *.eNodeB.txPower 19952.62315mw
param *.eNodeB.x2App[0].client.connectAddress "\"eNodeB1%x2ppp0\""
param *.eNodeB1.d2dCapable true
param *.eNodeB1.mobility.initFromDisplayString false
param *.eNodeB1.mobility.initialX 700m
param *.eNodeB1.mobility.initialY 300m
param *.eNodeB1.nic.phy.enableD2DCqiReporting true
param *.eNodeB1.txPower 19952.62315mw
param *.eNodeB1.x2App[0].client.connectAddress "\"eNodeB%x2ppp0\""
param *.extCell[*].bandAllocationType "${extAllocType=\"FULL_ALLOC\",\"RANDOM_ALLOC\",\"CONTIGUOUS_ALLOC\"}"
param *.extCell[*].bandUtilization 0.5
param *.extCell[*].txDirection "\"ANISOTROPIC\""
param *.extCell[*].txPower 20
param *.extCell[0].position_x 100m
param *.extCell[0].position_y 600m
param *.extCell[0].txAngle 315
param *.extCell[1].position_x 600m
param *.extCell[1].position_y 600m
param *.extCell[1].txAngle 225
param *.numExtCells 2
param *.numUeCell 0
param *.numUeD2DRx 1
param *.numUeD2DTx 1
param *.ue*.macCellId 1
param *.ue*.masterId 1
param *.ue*.mobility.initFromDisplayString false
param *.ue*[0].macCellId 1
param *.ue*[0].masterId 1
param *.ue*[0].mobility.initFromDisplayString false
param *.ueD2D*.numTcpApps 1
param *.ueD2D*[*].d2dCapable true
param *.ueD2D*[0].d2dCapable false
param *.ueD2D*[0].numTcpApps 1
param *.ueD2DRx[0].mobility.initialX 310m
param *.ueD2DRx[0].mobility.initialY 350m
param *.ueD2DRx[0].tcpApp[*].localPort 1000
param *.ueD2DRx[0].tcpApp[*].typename "\"TCPSinkApp\""
param *.ueD2DTx*.nic.d2dPeerAddresses "\"ueD2DTx[1]\""
param *.ueD2DTx*.tcpApp[*].connectAddress "\"ueD2DTx[0]\""
param *.ueD2DTx*.tcpApp[*].localAddress "\"ueD2DTx\""
param *.ueD2DTx*.tcpApp[*].localPort 1000
param *.ueD2DTx*.tcpApp[*].sendBytes 1GiB
param *.ueD2DTx*.tcpApp[*].typename "\"TCPSessionApp\""
param *.ueD2DTx*.tcpApp[0].active true
param *.ueD2DTx*.tcpApp[0].connectPort 1000
param *.ueD2DTx*.tcpApp[0].tOpen uniform(0.010s,0.1s)
param *.ueD2DTx*.tcpApp[0].tSend uniform(0.15s,0.5s)
param *.ueD2DTx[0].mobility.initialX 290m
param *.ueD2DTx[0].mobility.initialY 350m
param *.ueD2DTx[0].tcpApp[*].localPort 1000
param *.ueD2DTx[0].tcpApp[*].sendBytes 1GiB
param *.ueD2DTx[0].tcpApp[*].typename "\"TCPSessionApp\""
param *.ueD2DTx[0].tcpApp[0].active true
param *.ueD2DTx[0].tcpApp[0].connectAddress "\"ueD2DRx[0]\""
param *.ueD2DTx[0].tcpApp[0].connectPort 1000
param *.ueD2DTx[0].tcpApp[0].localAddress "\"ueD2DTx[0]\""
param *.ueD2DTx[0].tcpApp[0].tOpen uniform(0.010s,0.1s)
param *.ueD2DTx[0].tcpApp[0].tSend uniform(0.15s,0.5s)
param *.ueD2DTx[1].mobility.initialX 690m
param *.ueD2DTx[1].mobility.initialY 250m

vector 8  CAIN.server.ppp[0].queue  queueLength:vector  ETV
attr interpolationmode  sample-hold
attr title  "queue length, vector"
vector 9  CAIN.server.ppp[0].ppp  txState:vector  ETV
attr interpolationmode  sample-hold
attr title  "tx state, vector"
vector 24  CAIN.router.ppp[0].queue  queueLength:vector  ETV
attr interpolationmode  sample-hold
attr title  "queue length, vector"
vector 25  CAIN.router.ppp[0].ppp  txState:vector  ETV
attr interpolationmode  sample-hold
attr title  "tx state, vector"
vector 35  CAIN.router.ppp[1].queue  queueLength:vector  ETV
attr interpolationmode  sample-hold
attr title  "queue length, vector"
vector 36  CAIN.router.ppp[1].ppp  txState:vector  ETV
attr interpolationmode  sample-hold
attr title  "tx state, vector"
vector 56  CAIN.pgw.ppp[0].queue  queueLength:vector  ETV
attr interpolationmode  sample-hold
attr title  "queue length, vector"
vector 57  CAIN.pgw.ppp[0].ppp  txState:vector  ETV
attr interpolationmode  sample-hold
attr title  "tx state, vector"
vector 67  CAIN.pgw.ppp[1].queue  queueLength:vector  ETV
attr interpolationmode  sample-hold
attr title  "queue length, vector"
vector 68  CAIN.pgw.ppp[1].ppp  txState:vector  ETV
attr interpolationmode  sample-hold
attr title  "tx state, vector"
vector 78  CAIN.pgw.pppInterface.queue  queueLength:vector  ETV
attr interpolationmode  sample-hold
attr title  "queue length, vector"
vector 79  CAIN.pgw.pppInterface.ppp  txState:vector  ETV
attr interpolationmode  sample-hold
attr title  "tx state, vector"
vector 120  CAIN.eNodeB.pppIf.queue  queueLength:vector  ETV
attr interpolationmode  sample-hold
attr title  "queue length, vector"
vector 121  CAIN.eNodeB.pppIf.ppp  txState:vector  ETV
attr interpolationmode  sample-hold
attr title  "tx state, vector"
vector 131  CAIN.eNodeB.x2ppp[0].queue  queueLength:vector  ETV
attr interpolationmode  sample-hold
attr title  "queue length, vector"
vector 132  CAIN.eNodeB.x2ppp[0].ppp  txState:vector  ETV
attr interpolationmode  sample-hold
attr title  "tx state, vector"
vector 178  CAIN.eNodeB1.pppIf.queue  queueLength:vector  ETV
attr interpolationmode  sample-hold
attr title  "queue length, vector"
vector 179  CAIN.eNodeB1.pppIf.ppp  txState:vector  ETV
attr interpolationmode  sample-hold
attr title  "tx state, vector"
vector 189  CAIN.eNodeB1.x2ppp[0].queue  queueLength:vector  ETV
attr interpolationmode  sample-hold
attr title  "queue length, vector"
vector 190  CAIN.eNodeB1.x2ppp[0].ppp  txState:vector  ETV
attr interpolationmode  sample-hold
attr title  "tx state, vector"
vector 231  CAIN.ueD2DTx[0].nic.phy  servingCell:vector  ETV
attr source  servingCell
attr title  "ID of the serving eNodeB for the UE, vector"
attr unit  ""
vector 263  CAIN.ueD2DTx[1].nic.phy  servingCell:vector  ETV
attr source  servingCell
attr title  "ID of the serving eNodeB for the UE, vector"
attr unit  ""
vector 295  CAIN.ueD2DTx[2].nic.phy  servingCell:vector  ETV
attr source  servingCell
attr title  "ID of the serving eNodeB for the UE, vector"
attr unit  ""
vector 327  CAIN.ueD2DTx[3].nic.phy  servingCell:vector  ETV
attr source  servingCell
attr title  "ID of the serving eNodeB for the UE, vector"
attr unit  ""
vector 359  CAIN.ueD2DTx[4].nic.phy  servingCell:vector  ETV
attr source  servingCell
attr title  "ID of the serving eNodeB for the UE, vector"
attr unit  ""
vector 391  CAIN.ueD2DTx[5].nic.phy  servingCell:vector  ETV
attr source  servingCell
attr title  "ID of the serving eNodeB for the UE, vector"
attr unit  ""
vector 423  CAIN.ueD2DTx[6].nic.phy  servingCell:vector  ETV
attr source  servingCell
attr title  "ID of the serving eNodeB for the UE, vector"
attr unit  ""
vector 455  CAIN.ueD2DTx[7].nic.phy  servingCell:vector  ETV
attr source  servingCell
attr title  "ID of the serving eNodeB for the UE, vector"
attr unit  ""
vector 487  CAIN.ueD2DTx[8].nic.phy  servingCell:vector  ETV
attr source  servingCell
attr title  "ID of the serving eNodeB for the UE, vector"
attr unit  ""
vector 519  CAIN.ueD2DTx[9].nic.phy  servingCell:vector  ETV
attr source  servingCell
attr title  "ID of the serving eNodeB for the UE, vector"
attr unit  ""
vector 551  CAIN.ueD2DTx[10].nic.phy  servingCell:vector  ETV
attr source  servingCell
attr title  "ID of the serving eNodeB for the UE, vector"
attr unit  ""
vector 583  CAIN.ueD2DTx[11].nic.phy  servingCell:vector  ETV
attr source  servingCell
attr title  "ID of the serving eNodeB for the UE, vector"
attr unit  ""
vector 615  CAIN.ueD2DTx[12].nic.phy  servingCell:vector  ETV
attr source  servingCell
attr title  "ID of the serving eNodeB for the UE, vector"
attr unit  ""
vector 647  CAIN.ueD2DTx[13].nic.phy  servingCell:vector  ETV
attr source  servingCell
attr title  "ID of the serving eNodeB for the UE, vector"
attr unit  ""
vector 679  CAIN.ueD2DTx[14].nic.phy  servingCell:vector  ETV
attr source  servingCell
attr title  "ID of the serving eNodeB for the UE, vector"
attr unit  ""
vector 711  CAIN.ueD2DTx[15].nic.phy  servingCell:vector  ETV
attr source  servingCell
attr title  "ID of the serving eNodeB for the UE, vector"
attr unit  ""
vector 743  CAIN.ueD2DTx[16].nic.phy  servingCell:vector  ETV
attr source  servingCell
attr title  "ID of the serving eNodeB for the UE, vector"
attr unit  ""
vector 775  CAIN.ueD2DTx[17].nic.phy  servingCell:vector  ETV
attr source  servingCell
attr title  "ID of the serving eNodeB for the UE, vector"
attr unit  ""
vector 807  CAIN.ueD2DTx[18].nic.phy  servingCell:vector  ETV
attr source  servingCell
attr title  "ID of the serving eNodeB for the UE, vector"
attr unit  ""
vector 839  CAIN.ueD2DTx[19].nic.phy  servingCell:vector  ETV
attr source  servingCell
attr title  "ID of the serving eNodeB for the UE, vector"
attr unit  ""
vector 863  CAIN.eNodeB.sctp  "Throughput of Association 3"  ETV
vector 885  CAIN.eNodeB1.sctp  "Throughput of Association 4"  ETV
vector 907  CAIN.eNodeB.sctp  "Throughput of Association 1"  ETV
vector 927  CAIN.eNodeB.sctp  "Fast Recovery State 1:10.0.5.2"  ETV
vector 956  CAIN.eNodeB1.sctp  "Throughput of Association 2"  ETV
vector 976  CAIN.eNodeB1.sctp  "Fast Recovery State 2:10.0.5.1"  ETV
vector 128  CAIN.eNodeB.x2ppp[0].queue  rcvdPk:vector(packetBytes)  ETV
attr interpolationmode  none
attr title  "received packets, vector(packetBytes)"
vector 130  CAIN.eNodeB.x2ppp[0].queue  queueingTime:vector  ETV
attr interpolationmode  none
attr title  "queueing time, vector"
vector 186  CAIN.eNodeB1.x2ppp[0].queue  rcvdPk:vector(packetBytes)  ETV
attr interpolationmode  none
attr title  "received packets, vector(packetBytes)"
vector 188  CAIN.eNodeB1.x2ppp[0].queue  queueingTime:vector  ETV
attr interpolationmode  none
attr title  "queueing time, vector"
vector 137  CAIN.eNodeB.x2ppp[0].ppp  rcvdPkFromHL:vector(packetBytes)  ETV
attr interpolationmode  none
attr source  packetReceivedFromUpper
attr title  "packets received from higher layer, vector(packetBytes)"
vector 133  CAIN.eNodeB.x2ppp[0].ppp  txPk:vector(packetBytes)  ETV
attr interpolationmode  none
attr source  packetSentToLower
attr title  "packets transmitted, vector(packetBytes)"
vector 195  CAIN.eNodeB1.x2ppp[0].ppp  rcvdPkFromHL:vector(packetBytes)  ETV
attr interpolationmode  none
attr source  packetReceivedFromUpper
attr title  "packets received from higher layer, vector(packetBytes)"
vector 191  CAIN.eNodeB1.x2ppp[0].ppp  txPk:vector(packetBytes)  ETV
attr interpolationmode  none
attr source  packetSentToLower
attr title  "packets transmitted, vector(packetBytes)"
vector 192  CAIN.eNodeB1.x2ppp[0].ppp  rxPkOk:vector(packetBytes)  ETV
attr interpolationmode  none
attr source  rxPkOk
attr title  "packets received OK, vector(packetBytes)"
vector 196  CAIN.eNodeB1.x2ppp[0].ppp  passedUpPk:vector(packetBytes)  ETV
attr interpolationmode  none
attr source  packetSentToUpper
attr title  "packets passed to higher layer, vector(packetBytes)"
vector 134  CAIN.eNodeB.x2ppp[0].ppp  rxPkOk:vector(packetBytes)  ETV
attr interpolationmode  none
attr source  rxPkOk
attr title  "packets received OK, vector(packetBytes)"
vector 138  CAIN.eNodeB.x2ppp[0].ppp  passedUpPk:vector(packetBytes)  ETV
attr interpolationmode  none
attr source  packetSentToUpper
attr title  "packets passed to higher layer, vector(packetBytes)"
vector 1005  CAIN.eNodeB1.sctp  "Throughput of Association 4"  ETV
vector 882  CAIN.eNodeB1.sctp  "Peer Rwnd 4"  ETV
vector 1025  CAIN.eNodeB1.sctp  "Fast Recovery State 5:10.0.4.1"  ETV
vector 1052  CAIN.eNodeB1.sctp  "Fast Recovery State 5:10.0.2.2"  ETV
vector 1079  CAIN.eNodeB1.sctp  "Fast Recovery State 5:10.0.5.1"  ETV
vector 1108  CAIN.eNodeB.sctp  "Throughput of Association 3"  ETV
vector 860  CAIN.eNodeB.sctp  "Peer Rwnd 3"  ETV
vector 1128  CAIN.eNodeB.sctp  "Fast Recovery State 6:10.0.4.2"  ETV
vector 1155  CAIN.eNodeB.sctp  "Fast Recovery State 6:10.0.3.2"  ETV
vector 1182  CAIN.eNodeB.sctp  "Fast Recovery State 6:10.0.5.2"  ETV
vector 904  CAIN.eNodeB.sctp  "Peer Rwnd 1"  ETV
vector 1209  CAIN.eNodeB.sctp  "Fast Recovery State 1:10.0.4.2"  ETV
vector 1236  CAIN.eNodeB.sctp  "Fast Recovery State 1:10.0.3.2"  ETV
vector 953  CAIN.eNodeB1.sctp  "Peer Rwnd 2"  ETV
vector 1263  CAIN.eNodeB1.sctp  "Fast Recovery State 2:10.0.4.1"  ETV
vector 1290  CAIN.eNodeB1.sctp  "Fast Recovery State 2:10.0.2.2"  ETV
vector 1035  CAIN.eNodeB1.sctp  "Slow Start Threshold 5:10.0.2.2"  ETV
vector 1036  CAIN.eNodeB1.sctp  "Congestion Window 5:10.0.2.2"  ETV
vector 1037  CAIN.eNodeB1.sctp  "Bandwidth 5:10.0.2.2"  ETV
vector 1040  CAIN.eNodeB1.sctp  "HB Sent 5:10.0.2.2"  ETV
vector 1033  CAIN.eNodeB1.sctp  "RTO 5:10.0.2.2"  ETV
vector 1008  CAIN.eNodeB1.sctp  "Slow Start Threshold 5:10.0.4.1"  ETV
vector 1009  CAIN.eNodeB1.sctp  "Congestion Window 5:10.0.4.1"  ETV
vector 1010  CAIN.eNodeB1.sctp  "Bandwidth 5:10.0.4.1"  ETV
vector 1013  CAIN.eNodeB1.sctp  "HB Sent 5:10.0.4.1"  ETV
vector 1006  CAIN.eNodeB1.sctp  "RTO 5:10.0.4.1"  ETV
vector 1062  CAIN.eNodeB1.sctp  "Slow Start Threshold 5:10.0.5.1"  ETV
vector 1063  CAIN.eNodeB1.sctp  "Congestion Window 5:10.0.5.1"  ETV
vector 1064  CAIN.eNodeB1.sctp  "Bandwidth 5:10.0.5.1"  ETV
vector 1060  CAIN.eNodeB1.sctp  "RTO 5:10.0.5.1"  ETV
vector 1138  CAIN.eNodeB.sctp  "Slow Start Threshold 6:10.0.3.2"  ETV
vector 1139  CAIN.eNodeB.sctp  "Congestion Window 6:10.0.3.2"  ETV
vector 1140  CAIN.eNodeB.sctp  "Bandwidth 6:10.0.3.2"  ETV
vector 1143  CAIN.eNodeB.sctp  "HB Sent 6:10.0.3.2"  ETV
vector 1136  CAIN.eNodeB.sctp  "RTO 6:10.0.3.2"  ETV
vector 1111  CAIN.eNodeB.sctp  "Slow Start Threshold 6:10.0.4.2"  ETV
vector 1112  CAIN.eNodeB.sctp  "Congestion Window 6:10.0.4.2"  ETV
vector 1113  CAIN.eNodeB.sctp  "Bandwidth 6:10.0.4.2"  ETV
vector 1116  CAIN.eNodeB.sctp  "HB Sent 6:10.0.4.2"  ETV
vector 1109  CAIN.eNodeB.sctp  "RTO 6:10.0.4.2"  ETV
vector 1165  CAIN.eNodeB.sctp  "Slow Start Threshold 6:10.0.5.2"  ETV
vector 1166  CAIN.eNodeB.sctp  "Congestion Window 6:10.0.5.2"  ETV
vector 1167  CAIN.eNodeB.sctp  "Bandwidth 6:10.0.5.2"  ETV
vector 1163  CAIN.eNodeB.sctp  "RTO 6:10.0.5.2"  ETV
vector 916  CAIN.eNodeB.sctp  "HB ACK Sent 1:10.0.5.2"  ETV
vector 917  CAIN.eNodeB.sctp  "HB Received 1:10.0.5.2"  ETV
vector 965  CAIN.eNodeB1.sctp  "HB ACK Sent 2:10.0.5.1"  ETV
vector 966  CAIN.eNodeB1.sctp  "HB Received 2:10.0.5.1"  ETV
vector 1219  CAIN.eNodeB.sctp  "Slow Start Threshold 1:10.0.3.2"  ETV
vector 1220  CAIN.eNodeB.sctp  "Congestion Window 1:10.0.3.2"  ETV
vector 1221  CAIN.eNodeB.sctp  "Bandwidth 1:10.0.3.2"  ETV
vector 1224  CAIN.eNodeB.sctp  "HB Sent 1:10.0.3.2"  ETV
vector 1217  CAIN.eNodeB.sctp  "RTO 1:10.0.3.2"  ETV
vector 1192  CAIN.eNodeB.sctp  "Slow Start Threshold 1:10.0.4.2"  ETV
vector 1193  CAIN.eNodeB.sctp  "Congestion Window 1:10.0.4.2"  ETV
vector 1194  CAIN.eNodeB.sctp  "Bandwidth 1:10.0.4.2"  ETV
vector 1197  CAIN.eNodeB.sctp  "HB Sent 1:10.0.4.2"  ETV
vector 1190  CAIN.eNodeB.sctp  "RTO 1:10.0.4.2"  ETV
vector 910  CAIN.eNodeB.sctp  "Slow Start Threshold 1:10.0.5.2"  ETV
vector 911  CAIN.eNodeB.sctp  "Congestion Window 1:10.0.5.2"  ETV
vector 912  CAIN.eNodeB.sctp  "Bandwidth 1:10.0.5.2"  ETV
vector 908  CAIN.eNodeB.sctp  "RTO 1:10.0.5.2"  ETV
vector 1273  CAIN.eNodeB1.sctp  "Slow Start Threshold 2:10.0.2.2"  ETV
vector 1274  CAIN.eNodeB1.sctp  "Congestion Window 2:10.0.2.2"  ETV
vector 1275  CAIN.eNodeB1.sctp  "Bandwidth 2:10.0.2.2"  ETV
vector 1278  CAIN.eNodeB1.sctp  "HB Sent 2:10.0.2.2"  ETV
vector 1271  CAIN.eNodeB1.sctp  "RTO 2:10.0.2.2"  ETV
vector 1246  CAIN.eNodeB1.sctp  "Slow Start Threshold 2:10.0.4.1"  ETV
vector 1247  CAIN.eNodeB1.sctp  "Congestion Window 2:10.0.4.1"  ETV
vector 1248  CAIN.eNodeB1.sctp  "Bandwidth 2:10.0.4.1"  ETV
vector 1251  CAIN.eNodeB1.sctp  "HB Sent 2:10.0.4.1"  ETV
vector 1244  CAIN.eNodeB1.sctp  "RTO 2:10.0.4.1"  ETV
vector 959  CAIN.eNodeB1.sctp  "Slow Start Threshold 2:10.0.5.1"  ETV
vector 960  CAIN.eNodeB1.sctp  "Congestion Window 2:10.0.5.1"  ETV
vector 961  CAIN.eNodeB1.sctp  "Bandwidth 2:10.0.5.1"  ETV
vector 957  CAIN.eNodeB1.sctp  "RTO 2:10.0.5.1"  ETV
vector 1173  CAIN.eNodeB.sctp  "HB ACK Received 6:10.0.5.2"  ETV
vector 1164  CAIN.eNodeB.sctp  "RTT 6:10.0.5.2"  ETV
vector 1070  CAIN.eNodeB1.sctp  "HB ACK Received 5:10.0.5.1"  ETV
vector 1061  CAIN.eNodeB1.sctp  "RTT 5:10.0.5.1"  ETV
vector 1171  CAIN.eNodeB.sctp  "HB ACK Sent 6:10.0.5.2"  ETV
vector 1172  CAIN.eNodeB.sctp  "HB Received 6:10.0.5.2"  ETV
vector 1068  CAIN.eNodeB1.sctp  "HB ACK Sent 5:10.0.5.1"  ETV
vector 1069  CAIN.eNodeB1.sctp  "HB Received 5:10.0.5.1"  ETV
vector 967  CAIN.eNodeB1.sctp  "HB ACK Received 2:10.0.5.1"  ETV
vector 958  CAIN.eNodeB1.sctp  "RTT 2:10.0.5.1"  ETV
vector 918  CAIN.eNodeB.sctp  "HB ACK Received 1:10.0.5.2"  ETV
vector 909  CAIN.eNodeB.sctp  "RTT 1:10.0.5.2"  ETV
vector 96  CAIN.eNodeB.nic.mac  receivedPacketFromLowerLayer:vector(packetBytes)  ETV
attr interpolationmode  none
attr source  receivedPacketFromLowerLayer
vector 1305  CAIN.eNodeB.sctp  "SendQueue of Association 6"  ETV
vector 1168  CAIN.eNodeB.sctp  "TSN Sent 6:10.0.5.2"  ETV
vector 1175  CAIN.eNodeB.sctp  "Outstanding Bytes 6:10.0.5.2"  ETV
vector 848  CAIN.eNodeB.sctp  "Outstanding Bytes 3:Total"  ETV
vector 1174  CAIN.eNodeB.sctp  "Queued Sent Bytes 6:10.0.5.2"  ETV
vector 847  CAIN.eNodeB.sctp  "Queued Sent Bytes 3:Total"  ETV
vector 963  CAIN.eNodeB1.sctp  "TSN Received 2:10.0.5.1"  ETV
vector 939  CAIN.eNodeB1.sctp  "Queued Received Bytes 2:Total"  ETV
vector 935  CAIN.eNodeB1.sctp  "Advertised Receiver Window 2"  ETV
vector 944  CAIN.eNodeB1.sctp  "Number of Total Gap Blocks Stored 2"  ETV
vector 945  CAIN.eNodeB1.sctp  "Number of Revokable Gap Blocks Stored 2"  ETV
vector 946  CAIN.eNodeB1.sctp  "Number of Non-Revokable Gap Blocks Stored 2"  ETV
vector 947  CAIN.eNodeB1.sctp  "Number of Duplicate TSNs Stored 2"  ETV
vector 951  CAIN.eNodeB1.sctp  "Length of SACK Sent 2"  ETV
vector 948  CAIN.eNodeB1.sctp  "Number of Revokable Gap Blocks Sent 2"  ETV
vector 949  CAIN.eNodeB1.sctp  "Number of Non-Revokable Gap Blocks Sent 2"  ETV
vector 950  CAIN.eNodeB1.sctp  "Number of Duplicate TSNs Sent 2"  ETV
vector 955  CAIN.eNodeB1.sctp  "End to End Delay of Association 2"  ETV
vector 199  CAIN.eNodeB1.x2App[0].client  rcvdPk:vector(packetBytes)  ETV
attr interpolationmode  none
attr source  rcvdPk
attr title  "packets received, vector(packetBytes)"
vector 1304  CAIN.eNodeB.sctp  "Number of Gap Blocks in Last SACK of Association 6"  ETV
vector 849  CAIN.eNodeB.sctp  "Number of Revokable Gap Blocks in SACK 3"  ETV
vector 850  CAIN.eNodeB.sctp  "Number of Non-Revokable Gap Blocks in SACK 3"  ETV
vector 1185  CAIN.eNodeB.sctp  "TSN Acked CumAck 6:10.0.5.2"  ETV
vector 1151  CAIN.eNodeB.sctp  "Number of Gap Acked Chunks in Last SACK 6:10.0.3.2"  ETV
vector 1152  CAIN.eNodeB.sctp  "Number of Non-Revokable Gap Acked Chunks in Last SACK 6:10.0.3.2"  ETV
vector 1153  CAIN.eNodeB.sctp  "Number of Gap Missed Chunks in Last SACK 6:10.0.3.2"  ETV
vector 1124  CAIN.eNodeB.sctp  "Number of Gap Acked Chunks in Last SACK 6:10.0.4.2"  ETV
vector 1125  CAIN.eNodeB.sctp  "Number of Non-Revokable Gap Acked Chunks in Last SACK 6:10.0.4.2"  ETV
vector 1126  CAIN.eNodeB.sctp  "Number of Gap Missed Chunks in Last SACK 6:10.0.4.2"  ETV
vector 1178  CAIN.eNodeB.sctp  "Number of Gap Acked Chunks in Last SACK 6:10.0.5.2"  ETV
vector 1179  CAIN.eNodeB.sctp  "Number of Non-Revokable Gap Acked Chunks in Last SACK 6:10.0.5.2"  ETV
vector 1180  CAIN.eNodeB.sctp  "Number of Gap Missed Chunks in Last SACK 6:10.0.5.2"  ETV
vector 859  CAIN.eNodeB.sctp  "Arwnd in Last SACK 3"  ETV
vector 1187  CAIN.eNodeB.sctp  "TSN PseudoCumAck 6:10.0.5.2"  ETV
vector 1188  CAIN.eNodeB.sctp  "TSN RTXPseudoCumAck 6:10.0.5.2"  ETV
vector 1181  CAIN.eNodeB.sctp  "Partial Bytes Acked 6:10.0.5.2"  ETV
vector 1333  CAIN.ueD2DTx[17].tcp  tcpRcvQueueBytes  ETV
vector 1320  CAIN.ueD2DTx[17].tcp  "advertised window"  ETV
vector 1319  CAIN.ueD2DTx[17].tcp  "receive window"  ETV
vector 1322  CAIN.ueD2DTx[17].tcp  "sent ack"  ETV
vector 749  CAIN.ueD2DTx[17].nic.pdcpRrc  receivedPacketFromUpperLayer:vector(packetBytes)  ETV
attr interpolationmode  none
attr source  receivedPacketFromUpperLayer
vector 752  CAIN.ueD2DTx[17].nic.pdcpRrc  sentPacketToLowerLayer:vector(packetBytes)  ETV
attr interpolationmode  none
attr source  sentPacketToLowerLayer
vector 753  CAIN.ueD2DTx[17].nic.mac  receivedPacketFromUpperLayer:vector(packetBytes)  ETV
attr interpolationmode  none
attr source  receivedPacketFromUpperLayer
vector 763  CAIN.ueD2DTx[17].nic.mac  CainHopMessageSent:vector  ETV
attr interpolationmode  none
attr title  "# of Sent CAIN hop message, vector"
vector 756  CAIN.ueD2DTx[17].nic.mac  sentPacketToLowerLayer:vector(packetBytes)  ETV
attr interpolationmode  none
attr source  sentPacketToLowerLayer
vector 210  CAIN.ueD2DTx[0].nic.mac  receivedPacketFromLowerLayer:vector(packetBytes)  ETV
attr interpolationmode  none
attr source  receivedPacketFromLowerLayer
vector 212  CAIN.ueD2DTx[0].nic.mac  sentPacketToLowerLayer:vector(packetBytes)  ETV
attr interpolationmode  none
attr source  sentPacketToLowerLayer
vector 466  CAIN.ueD2DTx[8].nic.mac  receivedPacketFromLowerLayer:vector(packetBytes)  ETV
attr interpolationmode  none
attr source  receivedPacketFromLowerLayer
vector 468  CAIN.ueD2DTx[8].nic.mac  sentPacketToLowerLayer:vector(packetBytes)  ETV
attr interpolationmode  none
attr source  sentPacketToLowerLayer
vector 111  CAIN.eNodeB.nic.mac  racpkt:vector  ETV
attr interpolationmode  none
attr title  "eNB received racpkt message, vector"
vector 112  CAIN.eNodeB.nic.mac  racDistanceSignal:vector  ETV
attr interpolationmode  none
attr title  "Rac distance to enb, vector"
vector 113  CAIN.eNodeB.nic.mac  racServedDevsSignal:vector  ETV
attr interpolationmode  none
attr title  "# of devices served on rac arriavall, vector"
vector 106  CAIN.eNodeB.nic.mac  DistanceSignal:vector  ETV
attr interpolationmode  none
attr title  "Distance to enb, vector"
vector 101  CAIN.eNodeB.nic.mac  CainHopMessage:vector  ETV
attr interpolationmode  none
attr title  "eNB received CAIN hop message, vector"
vector 98  CAIN.eNodeB.nic.mac  sentPacketToLowerLayer:vector(packetBytes)  ETV
attr interpolationmode  none
attr source  sentPacketToLowerLayer
vector 473  CAIN.ueD2DTx[8].nic.mac  DropedHopMessage:vector  ETV
attr interpolationmode  none
attr title  "Droped Hop CAIN message due to RB not available, vector"
vector 1357  CAIN.ueD2DTx[8].tcp  tcpRcvQueueBytes  ETV
vector 1344  CAIN.ueD2DTx[8].tcp  "advertised window"  ETV
vector 1343  CAIN.ueD2DTx[8].tcp  "receive window"  ETV
vector 1346  CAIN.ueD2DTx[8].tcp  "sent ack"  ETV
vector 461  CAIN.ueD2DTx[8].nic.pdcpRrc  receivedPacketFromUpperLayer:vector(packetBytes)  ETV
attr interpolationmode  none
attr source  receivedPacketFromUpperLayer
vector 464  CAIN.ueD2DTx[8].nic.pdcpRrc  sentPacketToLowerLayer:vector(packetBytes)  ETV
attr interpolationmode  none
attr source  sentPacketToLowerLayer
vector 465  CAIN.ueD2DTx[8].nic.mac  receivedPacketFromUpperLayer:vector(packetBytes)  ETV
attr interpolationmode  none
attr source  receivedPacketFromUpperLayer
vector 1381  CAIN.ueD2DTx[9].tcp  tcpRcvQueueBytes  ETV
vector 1368  CAIN.ueD2DTx[9].tcp  "advertised window"  ETV
vector 1367  CAIN.ueD2DTx[9].tcp  "receive window"  ETV
vector 1370  CAIN.ueD2DTx[9].tcp  "sent ack"  ETV
vector 493  CAIN.ueD2DTx[9].nic.pdcpRrc  receivedPacketFromUpperLayer:vector(packetBytes)  ETV
attr interpolationmode  none
attr source  receivedPacketFromUpperLayer
vector 496  CAIN.ueD2DTx[9].nic.pdcpRrc  sentPacketToLowerLayer:vector(packetBytes)  ETV
attr interpolationmode  none
attr source  sentPacketToLowerLayer
vector 497  CAIN.ueD2DTx[9].nic.mac  receivedPacketFromUpperLayer:vector(packetBytes)  ETV
attr interpolationmode  none
attr source  receivedPacketFromUpperLayer
vector 500  CAIN.ueD2DTx[9].nic.mac  sentPacketToLowerLayer:vector(packetBytes)  ETV
attr interpolationmode  none
attr source  sentPacketToLowerLayer
vector 115  CAIN.eNodeB.nic.phy  averageCqiUlvect:vector  ETV
attr source  averageCqiUlvect
attr title  "Average Cqi reported in UL, vector"
attr unit  cqi
vector 498  CAIN.ueD2DTx[9].nic.mac  receivedPacketFromLowerLayer:vector(packetBytes)  ETV
attr interpolationmode  none
attr source  receivedPacketFromLowerLayer
vector 499  CAIN.ueD2DTx[9].nic.mac  sentPacketToUpperLayer:vector(packetBytes)  ETV
attr interpolationmode  none
attr source  sentPacketToUpperLayer
vector 109  CAIN.eNodeB.nic.mac  ServedHopDevs:vector  ETV
attr interpolationmode  none
attr title  "# of devices served on hop forwarding, vector"
vector 1405  CAIN.ueD2DTx[7].tcp  tcpRcvQueueBytes  ETV
vector 1392  CAIN.ueD2DTx[7].tcp  "advertised window"  ETV
vector 1391  CAIN.ueD2DTx[7].tcp  "receive window"  ETV
vector 1394  CAIN.ueD2DTx[7].tcp  "sent ack"  ETV
vector 429  CAIN.ueD2DTx[7].nic.pdcpRrc  receivedPacketFromUpperLayer:vector(packetBytes)  ETV
attr interpolationmode  none
attr source  receivedPacketFromUpperLayer
vector 432  CAIN.ueD2DTx[7].nic.pdcpRrc  sentPacketToLowerLayer:vector(packetBytes)  ETV
attr interpolationmode  none
attr source  sentPacketToLowerLayer
vector 433  CAIN.ueD2DTx[7].nic.mac  receivedPacketFromUpperLayer:vector(packetBytes)  ETV
attr interpolationmode  none
attr source  receivedPacketFromUpperLayer
vector 443  CAIN.ueD2DTx[7].nic.mac  CainHopMessageSent:vector  ETV
attr interpolationmode  none
attr title  "# of Sent CAIN hop message, vector"
vector 436  CAIN.ueD2DTx[7].nic.mac  sentPacketToLowerLayer:vector(packetBytes)  ETV
attr interpolationmode  none
attr source  sentPacketToLowerLayer
vector 474  CAIN.ueD2DTx[8].nic.mac  CainMessageSent:vector  ETV
attr interpolationmode  none
attr title  "# of Sent CAIN message, vector"
vector 690  CAIN.ueD2DTx[15].nic.mac  receivedPacketFromLowerLayer:vector(packetBytes)  ETV
attr interpolationmode  none
attr source  receivedPacketFromLowerLayer
vector 692  CAIN.ueD2DTx[15].nic.mac  sentPacketToLowerLayer:vector(packetBytes)  ETV
attr interpolationmode  none
attr source  sentPacketToLowerLayer
vector 1429  CAIN.ueD2DTx[5].tcp  tcpRcvQueueBytes  ETV
vector 1416  CAIN.ueD2DTx[5].tcp  "advertised window"  ETV
vector 1415  CAIN.ueD2DTx[5].tcp  "receive window"  ETV
vector 1418  CAIN.ueD2DTx[5].tcp  "sent ack"  ETV
vector 365  CAIN.ueD2DTx[5].nic.pdcpRrc  receivedPacketFromUpperLayer:vector(packetBytes)  ETV
attr interpolationmode  none
attr source  receivedPacketFromUpperLayer
vector 368  CAIN.ueD2DTx[5].nic.pdcpRrc  sentPacketToLowerLayer:vector(packetBytes)  ETV
attr interpolationmode  none
attr source  sentPacketToLowerLayer
vector 369  CAIN.ueD2DTx[5].nic.mac  receivedPacketFromUpperLayer:vector(packetBytes)  ETV
attr interpolationmode  none
attr source  receivedPacketFromUpperLayer
vector 99  CAIN.eNodeB.nic.mac  measuredItbs:vector  ETV
attr source  measuredItbs
attr title  "TBS index, vector"
attr unit  ""
vector 379  CAIN.ueD2DTx[5].nic.mac  CainHopMessageSent:vector  ETV
attr interpolationmode  none
attr title  "# of Sent CAIN hop message, vector"
vector 372  CAIN.ueD2DTx[5].nic.mac  sentPacketToLowerLayer:vector(packetBytes)  ETV
attr interpolationmode  none
attr source  sentPacketToLowerLayer
vector 1453  CAIN.ueD2DTx[10].tcp  tcpRcvQueueBytes  ETV
vector 1440  CAIN.ueD2DTx[10].tcp  "advertised window"  ETV
vector 1439  CAIN.ueD2DTx[10].tcp  "receive window"  ETV
vector 1442  CAIN.ueD2DTx[10].tcp  "sent ack"  ETV
vector 525  CAIN.ueD2DTx[10].nic.pdcpRrc  receivedPacketFromUpperLayer:vector(packetBytes)  ETV
attr interpolationmode  none
attr source  receivedPacketFromUpperLayer
vector 528  CAIN.ueD2DTx[10].nic.pdcpRrc  sentPacketToLowerLayer:vector(packetBytes)  ETV
attr interpolationmode  none
attr source  sentPacketToLowerLayer
vector 529  CAIN.ueD2DTx[10].nic.mac  receivedPacketFromUpperLayer:vector(packetBytes)  ETV
attr interpolationmode  none
attr source  receivedPacketFromUpperLayer
vector 1477  CAIN.ueD2DTx[13].tcp  tcpRcvQueueBytes  ETV
vector 1464  CAIN.ueD2DTx[13].tcp  "advertised window"  ETV
vector 1463  CAIN.ueD2DTx[13].tcp  "receive window"  ETV
vector 1466  CAIN.ueD2DTx[13].tcp  "sent ack"  ETV
vector 621  CAIN.ueD2DTx[13].nic.pdcpRrc  receivedPacketFromUpperLayer:vector(packetBytes)  ETV
attr interpolationmode  none
attr source  receivedPacketFromUpperLayer
vector 624  CAIN.ueD2DTx[13].nic.pdcpRrc  sentPacketToLowerLayer:vector(packetBytes)  ETV
attr interpolationmode  none
attr source  sentPacketToLowerLayer
vector 625  CAIN.ueD2DTx[13].nic.mac  receivedPacketFromUpperLayer:vector(packetBytes)  ETV
attr interpolationmode  none
attr source  receivedPacketFromUpperLayer
vector 539  CAIN.ueD2DTx[10].nic.mac  CainHopMessageSent:vector  ETV
attr interpolationmode  none
attr title  "# of Sent CAIN hop message, vector"
vector 532  CAIN.ueD2DTx[10].nic.mac  sentPacketToLowerLayer:vector(packetBytes)  ETV
attr interpolationmode  none
attr source  sentPacketToLowerLayer
vector 635  CAIN.ueD2DTx[13].nic.mac  CainHopMessageSent:vector  ETV
attr interpolationmode  none
attr title  "# of Sent CAIN hop message, vector"
vector 628  CAIN.ueD2DTx[13].nic.mac  sentPacketToLowerLayer:vector(packetBytes)  ETV
attr interpolationmode  none
attr source  sentPacketToLowerLayer
vector 100  CAIN.eNodeB.nic.mac  CainMessage:vector  ETV
attr interpolationmode  none
attr title  "eNB received CAIN message, vector"
vector 697  CAIN.ueD2DTx[15].nic.mac  DropedHopMessage:vector  ETV
attr interpolationmode  none
attr title  "Droped Hop CAIN message due to RB not available, vector"
vector 1501  CAIN.ueD2DTx[0].tcp  tcpRcvQueueBytes  ETV
vector 1488  CAIN.ueD2DTx[0].tcp  "advertised window"  ETV
vector 1487  CAIN.ueD2DTx[0].tcp  "receive window"  ETV
vector 1490  CAIN.ueD2DTx[0].tcp  "sent ack"  ETV
vector 205  CAIN.ueD2DTx[0].nic.pdcpRrc  receivedPacketFromUpperLayer:vector(packetBytes)  ETV
attr interpolationmode  none
attr source  receivedPacketFromUpperLayer
vector 208  CAIN.ueD2DTx[0].nic.pdcpRrc  sentPacketToLowerLayer:vector(packetBytes)  ETV
attr interpolationmode  none
attr source  sentPacketToLowerLayer
vector 209  CAIN.ueD2DTx[0].nic.mac  receivedPacketFromUpperLayer:vector(packetBytes)  ETV
attr interpolationmode  none
attr source  receivedPacketFromUpperLayer
vector 219  CAIN.ueD2DTx[0].nic.mac  CainHopMessageSent:vector  ETV
attr interpolationmode  none
attr title  "# of Sent CAIN hop message, vector"
vector 696  CAIN.ueD2DTx[15].nic.mac  DropedCainMessage:vector  ETV
attr interpolationmode  none
attr title  "Droped CAIN message due to RB not available, vector"
vector 97  CAIN.eNodeB.nic.mac  sentPacketToUpperLayer:vector(packetBytes)  ETV
attr interpolationmode  none
attr source  sentPacketToUpperLayer
vector 92  CAIN.eNodeB.nic.pdcpRrc  receivedPacketFromLowerLayer:vector(packetBytes)  ETV
attr interpolationmode  none
attr source  receivedPacketFromLowerLayer
vector 93  CAIN.eNodeB.nic.pdcpRrc  sentPacketToUpperLayer:vector(packetBytes)  ETV
attr interpolationmode  none
attr source  sentPacketToUpperLayer
vector 86  CAIN.eNodeB.udp  sentPk:vector(packetBytes)  ETV
attr interpolationmode  none
attr source  sentPk
attr title  "packets sent, vector(packetBytes)"
vector 145  CAIN.eNodeB1.udp  rcvdPk:vector(packetBytes)  ETV
attr interpolationmode  none
attr source  rcvdPk
attr title  "packets received, vector(packetBytes)"
vector 146  CAIN.eNodeB1.udp  passedUpPk:vector(count)  ETV
attr interpolationmode  none
attr title  "packets passed up, vector(count)"
vector 1525  CAIN.ueD2DTx[16].tcp  tcpRcvQueueBytes  ETV
vector 1512  CAIN.ueD2DTx[16].tcp  "advertised window"  ETV
vector 1511  CAIN.ueD2DTx[16].tcp  "receive window"  ETV
vector 1514  CAIN.ueD2DTx[16].tcp  "sent ack"  ETV
vector 717  CAIN.ueD2DTx[16].nic.pdcpRrc  receivedPacketFromUpperLayer:vector(packetBytes)  ETV
attr interpolationmode  none
attr source  receivedPacketFromUpperLayer
vector 720  CAIN.ueD2DTx[16].nic.pdcpRrc  sentPacketToLowerLayer:vector(packetBytes)  ETV
attr interpolationmode  none
attr source  sentPacketToLowerLayer
vector 721  CAIN.ueD2DTx[16].nic.mac  receivedPacketFromUpperLayer:vector(packetBytes)  ETV
attr interpolationmode  none
attr source  receivedPacketFromUpperLayer
vector 731  CAIN.ueD2DTx[16].nic.mac  CainHopMessageSent:vector  ETV
attr interpolationmode  none
attr title  "# of Sent CAIN hop message, vector"
vector 724  CAIN.ueD2DTx[16].nic.mac  sentPacketToLowerLayer:vector(packetBytes)  ETV
attr interpolationmode  none
attr source  sentPacketToLowerLayer
vector 149  CAIN.eNodeB1.nic.pdcpRrc  receivedPacketFromUpperLayer:vector(packetBytes)  ETV
attr interpolationmode  none
attr source  receivedPacketFromUpperLayer
vector 152  CAIN.eNodeB1.nic.pdcpRrc  sentPacketToLowerLayer:vector(packetBytes)  ETV
attr interpolationmode  none
attr source  sentPacketToLowerLayer
vector 1301  CAIN.eNodeB1.sctp  "SendQueue of Association 5"  ETV
vector 1065  CAIN.eNodeB1.sctp  "TSN Sent 5:10.0.5.1"  ETV
vector 1072  CAIN.eNodeB1.sctp  "Outstanding Bytes 5:10.0.5.1"  ETV
vector 870  CAIN.eNodeB1.sctp  "Outstanding Bytes 4:Total"  ETV
vector 1071  CAIN.eNodeB1.sctp  "Queued Sent Bytes 5:10.0.5.1"  ETV
vector 869  CAIN.eNodeB1.sctp  "Queued Sent Bytes 4:Total"  ETV
vector 153  CAIN.eNodeB1.nic.mac  receivedPacketFromUpperLayer:vector(packetBytes)  ETV
attr interpolationmode  none
attr source  receivedPacketFromUpperLayer
vector 914  CAIN.eNodeB.sctp  "TSN Received 1:10.0.5.2"  ETV
vector 890  CAIN.eNodeB.sctp  "Queued Received Bytes 1:Total"  ETV
vector 886  CAIN.eNodeB.sctp  "Advertised Receiver Window 1"  ETV
vector 895  CAIN.eNodeB.sctp  "Number of Total Gap Blocks Stored 1"  ETV
vector 896  CAIN.eNodeB.sctp  "Number of Revokable Gap Blocks Stored 1"  ETV
vector 897  CAIN.eNodeB.sctp  "Number of Non-Revokable Gap Blocks Stored 1"  ETV
vector 898  CAIN.eNodeB.sctp  "Number of Duplicate TSNs Stored 1"  ETV
vector 902  CAIN.eNodeB.sctp  "Length of SACK Sent 1"  ETV
vector 899  CAIN.eNodeB.sctp  "Number of Revokable Gap Blocks Sent 1"  ETV
vector 900  CAIN.eNodeB.sctp  "Number of Non-Revokable Gap Blocks Sent 1"  ETV
vector 901  CAIN.eNodeB.sctp  "Number of Duplicate TSNs Sent 1"  ETV
vector 906  CAIN.eNodeB.sctp  "End to End Delay of Association 1"  ETV
vector 141  CAIN.eNodeB.x2App[0].client  rcvdPk:vector(packetBytes)  ETV
attr interpolationmode  none
attr source  rcvdPk
attr title  "packets received, vector(packetBytes)"
vector 1300  CAIN.eNodeB1.sctp  "Number of Gap Blocks in Last SACK of Association 5"  ETV
vector 871  CAIN.eNodeB1.sctp  "Number of Revokable Gap Blocks in SACK 4"  ETV
vector 872  CAIN.eNodeB1.sctp  "Number of Non-Revokable Gap Blocks in SACK 4"  ETV
vector 1082  CAIN.eNodeB1.sctp  "TSN Acked CumAck 5:10.0.5.1"  ETV
vector 1048  CAIN.eNodeB1.sctp  "Number of Gap Acked Chunks in Last SACK 5:10.0.2.2"  ETV
vector 1049  CAIN.eNodeB1.sctp  "Number of Non-Revokable Gap Acked Chunks in Last SACK 5:10.0.2.2"  ETV
vector 1050  CAIN.eNodeB1.sctp  "Number of Gap Missed Chunks in Last SACK 5:10.0.2.2"  ETV
vector 1021  CAIN.eNodeB1.sctp  "Number of Gap Acked Chunks in Last SACK 5:10.0.4.1"  ETV
vector 1022  CAIN.eNodeB1.sctp  "Number of Non-Revokable Gap Acked Chunks in Last SACK 5:10.0.4.1"  ETV
vector 1023  CAIN.eNodeB1.sctp  "Number of Gap Missed Chunks in Last SACK 5:10.0.4.1"  ETV
vector 1075  CAIN.eNodeB1.sctp  "Number of Gap Acked Chunks in Last SACK 5:10.0.5.1"  ETV
vector 1076  CAIN.eNodeB1.sctp  "Number of Non-Revokable Gap Acked Chunks in Last SACK 5:10.0.5.1"  ETV
vector 1077  CAIN.eNodeB1.sctp  "Number of Gap Missed Chunks in Last SACK 5:10.0.5.1"  ETV
vector 881  CAIN.eNodeB1.sctp  "Arwnd in Last SACK 4"  ETV
vector 1084  CAIN.eNodeB1.sctp  "TSN PseudoCumAck 5:10.0.5.1"  ETV
vector 1085  CAIN.eNodeB1.sctp  "TSN RTXPseudoCumAck 5:10.0.5.1"  ETV
vector 1078  CAIN.eNodeB1.sctp  "Partial Bytes Acked 5:10.0.5.1"  ETV
vector 1549  CAIN.ueD2DTx[18].tcp  tcpRcvQueueBytes  ETV
vector 1536  CAIN.ueD2DTx[18].tcp  "advertised window"  ETV
vector 1535  CAIN.ueD2DTx[18].tcp  "receive window"  ETV
vector 1538  CAIN.ueD2DTx[18].tcp  "sent ack"  ETV
vector 781  CAIN.ueD2DTx[18].nic.pdcpRrc  receivedPacketFromUpperLayer:vector(packetBytes)  ETV
attr interpolationmode  none
attr source  receivedPacketFromUpperLayer
vector 784  CAIN.ueD2DTx[18].nic.pdcpRrc  sentPacketToLowerLayer:vector(packetBytes)  ETV
attr interpolationmode  none
attr source  sentPacketToLowerLayer
vector 785  CAIN.ueD2DTx[18].nic.mac  receivedPacketFromUpperLayer:vector(packetBytes)  ETV
attr interpolationmode  none
attr source  receivedPacketFromUpperLayer
vector 795  CAIN.ueD2DTx[18].nic.mac  CainHopMessageSent:vector  ETV
attr interpolationmode  none
attr title  "# of Sent CAIN hop message, vector"
vector 788  CAIN.ueD2DTx[18].nic.mac  sentPacketToLowerLayer:vector(packetBytes)  ETV
attr interpolationmode  none
attr source  sentPacketToLowerLayer
vector 1573  CAIN.ueD2DTx[14].tcp  tcpRcvQueueBytes  ETV
vector 1560  CAIN.ueD2DTx[14].tcp  "advertised window"  ETV
vector 1559  CAIN.ueD2DTx[14].tcp  "receive window"  ETV
vector 1562  CAIN.ueD2DTx[14].tcp  "sent ack"  ETV
vector 653  CAIN.ueD2DTx[14].nic.pdcpRrc  receivedPacketFromUpperLayer:vector(packetBytes)  ETV
attr interpolationmode  none
attr source  receivedPacketFromUpperLayer
vector 656  CAIN.ueD2DTx[14].nic.pdcpRrc  sentPacketToLowerLayer:vector(packetBytes)  ETV
attr interpolationmode  none
attr source  sentPacketToLowerLayer
vector 657  CAIN.ueD2DTx[14].nic.mac  receivedPacketFromUpperLayer:vector(packetBytes)  ETV
attr interpolationmode  none
attr source  receivedPacketFromUpperLayer
vector 667  CAIN.ueD2DTx[14].nic.mac  CainHopMessageSent:vector  ETV
attr interpolationmode  none
attr title  "# of Sent CAIN hop message, vector"
vector 660  CAIN.ueD2DTx[14].nic.mac  sentPacketToLowerLayer:vector(packetBytes)  ETV
attr interpolationmode  none
attr source  sentPacketToLowerLayer
vector 594  CAIN.ueD2DTx[12].nic.mac  receivedPacketFromLowerLayer:vector(packetBytes)  ETV
attr interpolationmode  none
attr source  receivedPacketFromLowerLayer
vector 596  CAIN.ueD2DTx[12].nic.mac  sentPacketToLowerLayer:vector(packetBytes)  ETV
attr interpolationmode  none
attr source  sentPacketToLowerLayer
vector 154  CAIN.eNodeB1.nic.mac  receivedPacketFromLowerLayer:vector(packetBytes)  ETV
attr interpolationmode  none
attr source  receivedPacketFromLowerLayer
vector 1597  CAIN.ueD2DTx[11].tcp  tcpRcvQueueBytes  ETV
vector 1584  CAIN.ueD2DTx[11].tcp  "advertised window"  ETV
vector 1583  CAIN.ueD2DTx[11].tcp  "receive window"  ETV
vector 1586  CAIN.ueD2DTx[11].tcp  "sent ack"  ETV
vector 557  CAIN.ueD2DTx[11].nic.pdcpRrc  receivedPacketFromUpperLayer:vector(packetBytes)  ETV
attr interpolationmode  none
attr source  receivedPacketFromUpperLayer
vector 560  CAIN.ueD2DTx[11].nic.pdcpRrc  sentPacketToLowerLayer:vector(packetBytes)  ETV
attr interpolationmode  none
attr source  sentPacketToLowerLayer
vector 561  CAIN.ueD2DTx[11].nic.mac  receivedPacketFromUpperLayer:vector(packetBytes)  ETV
attr interpolationmode  none
attr source  receivedPacketFromUpperLayer
vector 1621  CAIN.ueD2DTx[4].tcp  tcpRcvQueueBytes  ETV
vector 1608  CAIN.ueD2DTx[4].tcp  "advertised window"  ETV
vector 1607  CAIN.ueD2DTx[4].tcp  "receive window"  ETV
vector 1610  CAIN.ueD2DTx[4].tcp  "sent ack"  ETV
vector 333  CAIN.ueD2DTx[4].nic.pdcpRrc  receivedPacketFromUpperLayer:vector(packetBytes)  ETV
attr interpolationmode  none
attr source  receivedPacketFromUpperLayer
vector 336  CAIN.ueD2DTx[4].nic.pdcpRrc  sentPacketToLowerLayer:vector(packetBytes)  ETV
attr interpolationmode  none
attr source  sentPacketToLowerLayer
vector 337  CAIN.ueD2DTx[4].nic.mac  receivedPacketFromUpperLayer:vector(packetBytes)  ETV
attr interpolationmode  none
attr source  receivedPacketFromUpperLayer
vector 347  CAIN.ueD2DTx[4].nic.mac  CainHopMessageSent:vector  ETV
attr interpolationmode  none
attr title  "# of Sent CAIN hop message, vector"
vector 340  CAIN.ueD2DTx[4].nic.mac  sentPacketToLowerLayer:vector(packetBytes)  ETV
attr interpolationmode  none
attr source  sentPacketToLowerLayer
vector 434  CAIN.ueD2DTx[7].nic.mac  receivedPacketFromLowerLayer:vector(packetBytes)  ETV
attr interpolationmode  none
attr source  receivedPacketFromLowerLayer
vector 402  CAIN.ueD2DTx[6].nic.mac  receivedPacketFromLowerLayer:vector(packetBytes)  ETV
attr interpolationmode  none
attr source  receivedPacketFromLowerLayer
vector 404  CAIN.ueD2DTx[6].nic.mac  sentPacketToLowerLayer:vector(packetBytes)  ETV
attr interpolationmode  none
attr source  sentPacketToLowerLayer
vector 1645  CAIN.ueD2DTx[12].tcp  tcpRcvQueueBytes  ETV
vector 1632  CAIN.ueD2DTx[12].tcp  "advertised window"  ETV
vector 1631  CAIN.ueD2DTx[12].tcp  "receive window"  ETV
vector 1634  CAIN.ueD2DTx[12].tcp  "sent ack"  ETV
vector 589  CAIN.ueD2DTx[12].nic.pdcpRrc  receivedPacketFromUpperLayer:vector(packetBytes)  ETV
attr interpolationmode  none
attr source  receivedPacketFromUpperLayer
vector 592  CAIN.ueD2DTx[12].nic.pdcpRrc  sentPacketToLowerLayer:vector(packetBytes)  ETV
attr interpolationmode  none
attr source  sentPacketToLowerLayer
vector 593  CAIN.ueD2DTx[12].nic.mac  receivedPacketFromUpperLayer:vector(packetBytes)  ETV
attr interpolationmode  none
attr source  receivedPacketFromUpperLayer
vector 603  CAIN.ueD2DTx[12].nic.mac  CainHopMessageSent:vector  ETV
attr interpolationmode  none
attr title  "# of Sent CAIN hop message, vector"
vector 1669  CAIN.ueD2DTx[6].tcp  tcpRcvQueueBytes  ETV
vector 1656  CAIN.ueD2DTx[6].tcp  "advertised window"  ETV
vector 1655  CAIN.ueD2DTx[6].tcp  "receive window"  ETV
vector 1658  CAIN.ueD2DTx[6].tcp  "sent ack"  ETV
vector 397  CAIN.ueD2DTx[6].nic.pdcpRrc  receivedPacketFromUpperLayer:vector(packetBytes)  ETV
attr interpolationmode  none
attr source  receivedPacketFromUpperLayer
vector 400  CAIN.ueD2DTx[6].nic.pdcpRrc  sentPacketToLowerLayer:vector(packetBytes)  ETV
attr interpolationmode  none
attr source  sentPacketToLowerLayer
vector 401  CAIN.ueD2DTx[6].nic.mac  receivedPacketFromUpperLayer:vector(packetBytes)  ETV
attr interpolationmode  none
attr source  receivedPacketFromUpperLayer
vector 338  CAIN.ueD2DTx[4].nic.mac  receivedPacketFromLowerLayer:vector(packetBytes)  ETV
attr interpolationmode  none
attr source  receivedPacketFromLowerLayer
vector 169  CAIN.eNodeB1.nic.mac  racpkt:vector  ETV
attr interpolationmode  none
attr title  "eNB received racpkt message, vector"
vector 170  CAIN.eNodeB1.nic.mac  racDistanceSignal:vector  ETV
attr interpolationmode  none
attr title  "Rac distance to enb, vector"
vector 171  CAIN.eNodeB1.nic.mac  racServedDevsSignal:vector  ETV
attr interpolationmode  none
attr title  "# of devices served on rac arriavall, vector"
vector 156  CAIN.eNodeB1.nic.mac  sentPacketToLowerLayer:vector(packetBytes)  ETV
attr interpolationmode  none
attr source  sentPacketToLowerLayer
vector 1693  CAIN.ueD2DTx[1].tcp  tcpRcvQueueBytes  ETV
vector 1680  CAIN.ueD2DTx[1].tcp  "advertised window"  ETV
vector 1679  CAIN.ueD2DTx[1].tcp  "receive window"  ETV
vector 1682  CAIN.ueD2DTx[1].tcp  "sent ack"  ETV
vector 237  CAIN.ueD2DTx[1].nic.pdcpRrc  receivedPacketFromUpperLayer:vector(packetBytes)  ETV
attr interpolationmode  none
attr source  receivedPacketFromUpperLayer
vector 240  CAIN.ueD2DTx[1].nic.pdcpRrc  sentPacketToLowerLayer:vector(packetBytes)  ETV
attr interpolationmode  none
attr source  sentPacketToLowerLayer
vector 241  CAIN.ueD2DTx[1].nic.mac  receivedPacketFromUpperLayer:vector(packetBytes)  ETV
attr interpolationmode  none
attr source  receivedPacketFromUpperLayer
vector 250  CAIN.ueD2DTx[1].nic.mac  CainMessageSent:vector  ETV
attr interpolationmode  none
attr title  "# of Sent CAIN message, vector"
vector 244  CAIN.ueD2DTx[1].nic.mac  sentPacketToLowerLayer:vector(packetBytes)  ETV
attr interpolationmode  none
attr source  sentPacketToLowerLayer
vector 530  CAIN.ueD2DTx[10].nic.mac  receivedPacketFromLowerLayer:vector(packetBytes)  ETV
attr interpolationmode  none
attr source  receivedPacketFromLowerLayer
vector 1717  CAIN.ueD2DTx[15].tcp  tcpRcvQueueBytes  ETV
vector 1704  CAIN.ueD2DTx[15].tcp  "advertised window"  ETV
vector 1703  CAIN.ueD2DTx[15].tcp  "receive window"  ETV
vector 1706  CAIN.ueD2DTx[15].tcp  "sent ack"  ETV
vector 685  CAIN.ueD2DTx[15].nic.pdcpRrc  receivedPacketFromUpperLayer:vector(packetBytes)  ETV
attr interpolationmode  none
attr source  receivedPacketFromUpperLayer
vector 688  CAIN.ueD2DTx[15].nic.pdcpRrc  sentPacketToLowerLayer:vector(packetBytes)  ETV
attr interpolationmode  none
attr source  sentPacketToLowerLayer
vector 689  CAIN.ueD2DTx[15].nic.mac  receivedPacketFromUpperLayer:vector(packetBytes)  ETV
attr interpolationmode  none
attr source  receivedPacketFromUpperLayer
vector 1741  CAIN.ueD2DTx[2].tcp  tcpRcvQueueBytes  ETV
vector 1728  CAIN.ueD2DTx[2].tcp  "advertised window"  ETV
vector 1727  CAIN.ueD2DTx[2].tcp  "receive window"  ETV
vector 1730  CAIN.ueD2DTx[2].tcp  "sent ack"  ETV
vector 269  CAIN.ueD2DTx[2].nic.pdcpRrc  receivedPacketFromUpperLayer:vector(packetBytes)  ETV
attr interpolationmode  none
attr source  receivedPacketFromUpperLayer
vector 272  CAIN.ueD2DTx[2].nic.pdcpRrc  sentPacketToLowerLayer:vector(packetBytes)  ETV
attr interpolationmode  none
attr source  sentPacketToLowerLayer
vector 273  CAIN.ueD2DTx[2].nic.mac  receivedPacketFromUpperLayer:vector(packetBytes)  ETV
attr interpolationmode  none
attr source  receivedPacketFromUpperLayer
vector 1765  CAIN.ueD2DTx[19].tcp  tcpRcvQueueBytes  ETV
vector 1752  CAIN.ueD2DTx[19].tcp  "advertised window"  ETV
vector 1751  CAIN.ueD2DTx[19].tcp  "receive window"  ETV
vector 1754  CAIN.ueD2DTx[19].tcp  "sent ack"  ETV
vector 813  CAIN.ueD2DTx[19].nic.pdcpRrc  receivedPacketFromUpperLayer:vector(packetBytes)  ETV
attr interpolationmode  none
attr source  receivedPacketFromUpperLayer
vector 816  CAIN.ueD2DTx[19].nic.pdcpRrc  sentPacketToLowerLayer:vector(packetBytes)  ETV
attr interpolationmode  none
attr source  sentPacketToLowerLayer
vector 817  CAIN.ueD2DTx[19].nic.mac  receivedPacketFromUpperLayer:vector(packetBytes)  ETV
attr interpolationmode  none
attr source  receivedPacketFromUpperLayer
vector 282  CAIN.ueD2DTx[2].nic.mac  CainMessageSent:vector  ETV
attr interpolationmode  none
attr title  "# of Sent CAIN message, vector"
vector 276  CAIN.ueD2DTx[2].nic.mac  sentPacketToLowerLayer:vector(packetBytes)  ETV
attr interpolationmode  none
attr source  sentPacketToLowerLayer
vector 691  CAIN.ueD2DTx[15].nic.mac  sentPacketToUpperLayer:vector(packetBytes)  ETV
attr interpolationmode  none
attr source  sentPacketToUpperLayer
vector 827  CAIN.ueD2DTx[19].nic.mac  CainHopMessageSent:vector  ETV
attr interpolationmode  none
attr title  "# of Sent CAIN hop message, vector"
vector 820  CAIN.ueD2DTx[19].nic.mac  sentPacketToLowerLayer:vector(packetBytes)  ETV
attr interpolationmode  none
attr source  sentPacketToLowerLayer
vector 117  CAIN.eNodeB.pppIf.queue  rcvdPk:vector(packetBytes)  ETV
attr interpolationmode  none
attr title  "received packets, vector(packetBytes)"
vector 119  CAIN.eNodeB.pppIf.queue  queueingTime:vector  ETV
attr interpolationmode  none
attr title  "queueing time, vector"
vector 126  CAIN.eNodeB.pppIf.ppp  rcvdPkFromHL:vector(packetBytes)  ETV
attr interpolationmode  none
attr source  packetReceivedFromUpper
attr title  "packets received from higher layer, vector(packetBytes)"
vector 122  CAIN.eNodeB.pppIf.ppp  txPk:vector(packetBytes)  ETV
attr interpolationmode  none
attr source  packetSentToLower
attr title  "packets transmitted, vector(packetBytes)"
vector 59  CAIN.pgw.ppp[0].ppp  rxPkOk:vector(packetBytes)  ETV
attr interpolationmode  none
attr source  rxPkOk
attr title  "packets received OK, vector(packetBytes)"
vector 63  CAIN.pgw.ppp[0].ppp  passedUpPk:vector(packetBytes)  ETV
attr interpolationmode  none
attr source  packetSentToUpper
attr title  "packets passed to higher layer, vector(packetBytes)"
vector 44  CAIN.pgw.udp  rcvdPk:vector(packetBytes)  ETV
attr interpolationmode  none
attr source  rcvdPk
attr title  "packets received, vector(packetBytes)"
vector 45  CAIN.pgw.udp  passedUpPk:vector(count)  ETV
attr interpolationmode  none
attr title  "packets passed up, vector(count)"
vector 43  CAIN.pgw.udp  sentPk:vector(packetBytes)  ETV
attr interpolationmode  none
attr source  sentPk
attr title  "packets sent, vector(packetBytes)"
vector 64  CAIN.pgw.ppp[1].queue  rcvdPk:vector(packetBytes)  ETV
attr interpolationmode  none
attr title  "received packets, vector(packetBytes)"
vector 66  CAIN.pgw.ppp[1].queue  queueingTime:vector  ETV
attr interpolationmode  none
attr title  "queueing time, vector"
vector 73  CAIN.pgw.ppp[1].ppp  rcvdPkFromHL:vector(packetBytes)  ETV
attr interpolationmode  none
attr source  packetReceivedFromUpper
attr title  "packets received from higher layer, vector(packetBytes)"
vector 69  CAIN.pgw.ppp[1].ppp  txPk:vector(packetBytes)  ETV
attr interpolationmode  none
attr source  packetSentToLower
attr title  "packets transmitted, vector(packetBytes)"
vector 181  CAIN.eNodeB1.pppIf.ppp  rxPkOk:vector(packetBytes)  ETV
attr interpolationmode  none
attr source  rxPkOk
attr title  "packets received OK, vector(packetBytes)"
vector 185  CAIN.eNodeB1.pppIf.ppp  passedUpPk:vector(packetBytes)  ETV
attr interpolationmode  none
attr source  packetSentToUpper
attr title  "packets passed to higher layer, vector(packetBytes)"
vector 1789  CAIN.ueD2DTx[3].tcp  tcpRcvQueueBytes  ETV
vector 1776  CAIN.ueD2DTx[3].tcp  "advertised window"  ETV
vector 1775  CAIN.ueD2DTx[3].tcp  "receive window"  ETV
vector 1778  CAIN.ueD2DTx[3].tcp  "sent ack"  ETV
vector 301  CAIN.ueD2DTx[3].nic.pdcpRrc  receivedPacketFromUpperLayer:vector(packetBytes)  ETV
attr interpolationmode  none
attr source  receivedPacketFromUpperLayer
vector 304  CAIN.ueD2DTx[3].nic.pdcpRrc  sentPacketToLowerLayer:vector(packetBytes)  ETV
attr interpolationmode  none
attr source  sentPacketToLowerLayer
vector 305  CAIN.ueD2DTx[3].nic.mac  receivedPacketFromUpperLayer:vector(packetBytes)  ETV
attr interpolationmode  none
attr source  receivedPacketFromUpperLayer
vector 274  CAIN.ueD2DTx[2].nic.mac  receivedPacketFromLowerLayer:vector(packetBytes)  ETV
attr interpolationmode  none
attr source  receivedPacketFromLowerLayer
vector 173  CAIN.eNodeB1.nic.phy  averageCqiUlvect:vector  ETV
attr source  averageCqiUlvect
attr title  "Average Cqi reported in UL, vector"
attr unit  cqi
vector 442  CAIN.ueD2DTx[7].nic.mac  CainMessageSent:vector  ETV
attr interpolationmode  none
attr title  "# of Sent CAIN message, vector"
vector 531  CAIN.ueD2DTx[10].nic.mac  sentPacketToUpperLayer:vector(packetBytes)  ETV
attr interpolationmode  none
attr source  sentPacketToUpperLayer
vector 157  CAIN.eNodeB1.nic.mac  measuredItbs:vector  ETV
attr source  measuredItbs
attr title  "TBS index, vector"
attr unit  ""
vector 155  CAIN.eNodeB1.nic.mac  sentPacketToUpperLayer:vector(packetBytes)  ETV
attr interpolationmode  none
attr source  sentPacketToUpperLayer
vector 150  CAIN.eNodeB1.nic.pdcpRrc  receivedPacketFromLowerLayer:vector(packetBytes)  ETV
attr interpolationmode  none
attr source  receivedPacketFromLowerLayer
vector 151  CAIN.eNodeB1.nic.pdcpRrc  sentPacketToUpperLayer:vector(packetBytes)  ETV
attr interpolationmode  none
attr source  sentPacketToUpperLayer
vector 730  CAIN.ueD2DTx[16].nic.mac  CainMessageSent:vector  ETV
attr interpolationmode  none
attr title  "# of Sent CAIN message, vector"
vector 475  CAIN.ueD2DTx[8].nic.mac  CainHopMessageSent:vector  ETV
attr interpolationmode  none
attr title  "# of Sent CAIN hop message, vector"
vector 571  CAIN.ueD2DTx[11].nic.mac  CainHopMessageSent:vector  ETV
attr interpolationmode  none
attr title  "# of Sent CAIN hop message, vector"
vector 564  CAIN.ueD2DTx[11].nic.mac  sentPacketToLowerLayer:vector(packetBytes)  ETV
attr interpolationmode  none
attr source  sentPacketToLowerLayer
vector 403  CAIN.ueD2DTx[6].nic.mac  sentPacketToUpperLayer:vector(packetBytes)  ETV
attr interpolationmode  none
attr source  sentPacketToUpperLayer
vector 315  CAIN.ueD2DTx[3].nic.mac  CainHopMessageSent:vector  ETV
attr interpolationmode  none
attr title  "# of Sent CAIN hop message, vector"
vector 308  CAIN.ueD2DTx[3].nic.mac  sentPacketToLowerLayer:vector(packetBytes)  ETV
attr interpolationmode  none
attr source  sentPacketToLowerLayer
vector 699  CAIN.ueD2DTx[15].nic.mac  CainHopMessageSent:vector  ETV
attr interpolationmode  none
attr title  "# of Sent CAIN hop message, vector"
vector 218  CAIN.ueD2DTx[0].nic.mac  CainMessageSent:vector  ETV
attr interpolationmode  none
attr title  "# of Sent CAIN message, vector"
vector 722  CAIN.ueD2DTx[16].nic.mac  receivedPacketFromLowerLayer:vector(packetBytes)  ETV
attr interpolationmode  none
attr source  receivedPacketFromLowerLayer
vector 251  CAIN.ueD2DTx[1].nic.mac  CainHopMessageSent:vector  ETV
attr interpolationmode  none
attr title  "# of Sent CAIN hop message, vector"
1108	54815 24 150 150 0.0000001228 0.0000001228 1 0 0 0 0
1219	54839 28 235 235 0.0000006304 0.0000006304 1 65535 65535 65535 4294836225
1220	54867 27 235 235 0.0000006304 0.0000006304 1 8940 8940 8940 79923600
1221	54894 29 235 235 0.0000006304 0.0000006304 1 0.3725 0.3725 0.3725 0.13875625
1217	54923 24 235 235 0.0000006304 0.0000006304 1 3 3 3 9
1224	54947 24 235 235 0.0000006304 0.0000006304 1 1 1 1 1
1236	54971 24 163 163 0.0000003096 0.0000003096 1 0 0 0 0
1192	54995 28 235 235 0.0000006304 0.0000006304 1 65535 65535 65535 4294836225
1193	55023 27 235 235 0.0000006304 0.0000006304 1 8940 8940 8940 79923600
1194	55050 29 235 235 0.0000006304 0.0000006304 1 0.3725 0.3725 0.3725 0.13875625
1190	55079 24 235 235 0.0000006304 0.0000006304 1 3 3 3 9
1197	55103 24 235 235 0.0000006304 0.0000006304 1 1 1 1 1
1209	55127 24 163 163 0.0000003096 0.0000003096 1 0 0 0 0
910	55151 27 235 235 0.0000006304 0.0000006304 1 65535 65535 65535 4294836225
911	55178 26 235 235 0.0000006304 0.0000006304 1 8940 8940 8940 79923600
912	55204 28 235 235 0.0000006304 0.0000006304 1 0.3725 0.3725 0.3725 0.13875625
908	55232 46 235 302 0.0000006304 0.0000008564 2 1 3 4 10
909	55278 30 302 302 0.0000008564 0.0000008564 1 2.26e-07 2.26e-07 2.26e-07 5.1076e-14
914	55308 3514 3585 14622 0.0570000972 0.2570024476 126 2000 2125 259875 536158875
917	58822 44 207 221 0.000000552 0.000000596 2 1 2 3 5
916	58866 44 207 221 0.000000552 0.000000596 2 1 2 3 5
918	58910 46 302 308 0.0000008564 0.0000009004 2 1 2 3 5
927	58956 12 131 131 0 0 1 0 0 0 0
886	58968 86 3585 25135 0.0570000972 0.4570024476 3 65533 65535 196603 12884246539
890	59054 3213 3585 25135 0.0570000972 0.4570024476 129 0 224 254 50860
895	62267 74 3585 25135 0.0570000972 0.4570024476 3 0 0 0 0
896	62341 74 3585 25135 0.0570000972 0.4570024476 3 0 0 0 0
897	62415 74 3585 25135 0.0570000972 0.4570024476 3 0 0 0 0
898	62489 74 3585 25135 0.0570000972 0.4570024476 3 0 0 0 0
899	62563 74 3585 25135 0.0570000972 0.4570024476 3 0 0 0 0
900	62637 74 3585 25135 0.0570000972 0.4570024476 3 0 0 0 0
901	62711 74 3585 25135 0.0570000972 0.4570024476 3 0 0 0 0
902	62785 77 3585 25135 0.0570000972 0.4570024476 3 16 16 48 768
904	62862 27 163 163 0.0000003096 0.0000003096 1 65535 65535 65535 4294836225
906	62889 4255 3588 14735 0.0570000972 0.2570024476 126 9.72e-08 1.8732e-06 0.0002136552 3.9409108704e-10
907	67144 12 131 131 0 0 1 0 0 0 0
1138	67156 27 178 178 0.000000458 0.000000458 1 65535 65535 65535 4294836225
1139	67183 26 178 178 0.000000458 0.000000458 1 8940 8940 8940 79923600
1140	67209 28 178 178 0.000000458 0.000000458 1 0.3725 0.3725 0.3725 0.13875625
1136	67237 23 178 178 0.000000458 0.000000458 1 3 3 3 9
1143	67260 23 178 178 0.000000458 0.000000458 1 1 1 1 1
1151	67283 76 671 22646 0.0070001912 0.4070025416 3 0 0 0 0
1152	67359 76 671 22646 0.0070001912 0.4070025416 3 0 0 0 0
1153	67435 76 671 22646 0.0070001912 0.4070025416 3 0 0 0 0
1155	67511 24 150 150 0.0000001228 0.0000001228 1 0 0 0 0
1111	67535 27 178 178 0.000000458 0.000000458 1 65535 65535 65535 4294836225
1112	67562 26 178 178 0.000000458 0.000000458 1 8940 8940 8940 79923600
1113	67588 28 178 178 0.000000458 0.000000458 1 0.3725 0.3725 0.3725 0.13875625
1109	67616 23 178 178 0.000000458 0.000000458 1 3 3 3 9
1116	67639 23 178 178 0.000000458 0.000000458 1 1 1 1 1
1124	67662 76 671 22646 0.0070001912 0.4070025416 3 0 0 0 0
1125	67738 76 671 22646 0.0070001912 0.4070025416 3 0 0 0 0
1126	67814 76 671 22646 0.0070001912 0.4070025416 3 0 0 0 0
1128	67890 24 150 150 0.0000001228 0.0000001228 1 0 0 0 0
1165	67914 57 178 62397 0.000000458 1.2070005744 2 65535 65535 131070 8589672450
1166	67971 55 178 62397 0.000000458 1.2070005744 2 8940 8940 17880 159847200
1167	68026 58 178 62397 0.000000458 1.2070005744 2 0.3725 23.84 24.2125 568.48435625
1163	68084 123 178 22646 0.000000458 0.4070025416 5 1 3 7 13
1164	68207 138 255 22646 0.0000006744 0.4070025416 4 1.912e-07 0.2000019672 0.400002758 0.0800009401641
1168	68345 3619 613 11592 0.007 0.2070005744 126 2000 2125 259875 536158875
1172	71964 48 273 287 0.0000007624 0.0000008064 2 1 2 3 5
1171	72012 48 273 287 0.0000007624 0.0000008064 2 1 2 3 5
1173	72060 48 255 265 0.0000006744 0.0000007184 2 1 2 3 5
1174	72108 6872 613 22646 0.007 0.4070025416 252 0 224 25428 3752504
1175	78980 6872 613 22646 0.007 0.4070025416 252 0 224 25428 3752504
1178	85852 76 671 22646 0.0070001912 0.4070025416 3 0 0 0 0
1179	85928 76 671 22646 0.0070001912 0.4070025416 3 0 0 0 0
1180	86004 76 671 22646 0.0070001912 0.4070025416 3 0 0 0 0
1181	86080 76 671 22646 0.0070001912 0.4070025416 3 0 0 0 0
1182	86156 24 150 150 0.0000001228 0.0000001228 1 0 0 0 0
1185	86180 85 671 22646 0.0070001912 0.4070025416 3 2000 2125 6138 12567794
1187	86265 76 671 22646 0.0070001912 0.4070025416 3 0 0 0 0
1188	86341 76 671 22646 0.0070001912 0.4070025416 3 0 0 0 0
1304	86417 76 671 22646 0.0070001912 0.4070025416 3 0 0 0 0
1305	86493 5718 613 11592 0.007 0.2070005744 252 0 112 12714 938126
848	92211 6620 613 22646 0.007 0.4070025416 252 0 224 25428 3752504
847	98831 6620 613 22646 0.007 0.4070025416 252 0 224 25428 3752504
849	105451 73 671 22646 0.0070001912 0.4070025416 3 0 0 0 0
850	105524 73 671 22646 0.0070001912 0.4070025416 3 0 0 0 0
859	105597 85 671 22646 0.0070001912 0.4070025416 3 65533 65535 196603 12884246539
860	105682 112 150 22646 0.0000001228 0.4070025416 4 65533 65535 262138 17179082764
863	105794 12 123 123 0 0 1 0 0 0 0
1005	105806 24 149 149 0.0000001228 0.0000001228 1 0 0 0 0
1273	105830 28 236 236 0.0000006304 0.0000006304 1 65535 65535 65535 4294836225
1274	105858 27 236 236 0.0000006304 0.0000006304 1 8940 8940 8940 79923600
1275	105885 29 236 236 0.0000006304 0.0000006304 1 0.3725 0.3725 0.3725 0.13875625
1271	105914 24 236 236 0.0000006304 0.0000006304 1 3 3 3 9
1278	105938 24 236 236 0.0000006304 0.0000006304 1 1 1 1 1
1290	105962 24 164 164 0.0000003096 0.0000003096 1 0 0 0 0
1246	105986 28 236 236 0.0000006304 0.0000006304 1 65535 65535 65535 4294836225
1247	106014 27 236 236 0.0000006304 0.0000006304 1 8940 8940 8940 79923600
1248	106041 29 236 236 0.0000006304 0.0000006304 1 0.3725 0.3725 0.3725 0.13875625
1244	106070 24 236 236 0.0000006304 0.0000006304 1 3 3 3 9
1251	106094 24 236 236 0.0000006304 0.0000006304 1 1 1 1 1
1263	106118 24 164 164 0.0000003096 0.0000003096 1 0 0 0 0
959	106142 27 236 236 0.0000006304 0.0000006304 1 65535 65535 65535 4294836225
960	106169 26 236 236 0.0000006304 0.0000006304 1 8940 8940 8940 79923600
961	106195 28 236 236 0.0000006304 0.0000006304 1 0.3725 0.3725 0.3725 0.13875625
957	106223 46 236 301 0.0000006304 0.0000008564 2 1 3 4 10
958	106269 30 301 301 0.0000008564 0.0000008564 1 2.26e-07 2.26e-07 2.26e-07 5.1076e-14
963	106299 3500 659 11599 0.0070000972 0.2070024476 126 2000 2125 259875 536158875
966	109799 44 208 222 0.000000552 0.000000596 2 1 2 3 5
965	109843 44 208 222 0.000000552 0.000000596 2 1 2 3 5
967	109887 46 301 307 0.0000008564 0.0000009004 2 1 2 3 5
976	109933 12 132 132 0 0 1 0 0 0 0
935	109945 85 659 22639 0.0070000972 0.4070024476 3 65533 65535 196603 12884246539
939	110030 3198 659 22639 0.0070000972 0.4070024476 129 0 224 254 50860
944	113228 73 659 22639 0.0070000972 0.4070024476 3 0 0 0 0
945	113301 73 659 22639 0.0070000972 0.4070024476 3 0 0 0 0
946	113374 73 659 22639 0.0070000972 0.4070024476 3 0 0 0 0
947	113447 73 659 22639 0.0070000972 0.4070024476 3 0 0 0 0
948	113520 73 659 22639 0.0070000972 0.4070024476 3 0 0 0 0
949	113593 73 659 22639 0.0070000972 0.4070024476 3 0 0 0 0
950	113666 73 659 22639 0.0070000972 0.4070024476 3 0 0 0 0
951	113739 76 659 22639 0.0070000972 0.4070024476 3 16 16 48 768
953	113815 27 164 164 0.0000003096 0.0000003096 1 65535 65535 65535 4294836225
955	113842 4241 662 11712 0.0070000972 0.2070024476 126 9.72e-08 1.8732e-06 0.0002136552 3.9409108704e-10
956	118083 12 132 132 0 0 1 0 0 0 0
1035	118095 27 177 177 0.000000458 0.000000458 1 65535 65535 65535 4294836225
1036	118122 26 177 177 0.000000458 0.000000458 1 8940 8940 8940 79923600
1037	118148 28 177 177 0.000000458 0.000000458 1 0.3725 0.3725 0.3725 0.13875625
1033	118176 23 177 177 0.000000458 0.000000458 1 3 3 3 9
1040	118199 23 177 177 0.000000458 0.000000458 1 1 1 1 1
1048	118222 77 3597 25142 0.0570001912 0.4570025416 3 0 0 0 0
1049	118299 77 3597 25142 0.0570001912 0.4570025416 3 0 0 0 0
1050	118376 77 3597 25142 0.0570001912 0.4570025416 3 0 0 0 0
1052	118453 24 149 149 0.0000001228 0.0000001228 1 0 0 0 0
1008	118477 27 177 177 0.000000458 0.000000458 1 65535 65535 65535 4294836225
1009	118504 26 177 177 0.000000458 0.000000458 1 8940 8940 8940 79923600
1010	118530 28 177 177 0.000000458 0.000000458 1 0.3725 0.3725 0.3725 0.13875625
1006	118558 23 177 177 0.000000458 0.000000458 1 3 3 3 9
1013	118581 23 177 177 0.000000458 0.000000458 1 1 1 1 1
1021	118604 77 3597 25142 0.0570001912 0.4570025416 3 0 0 0 0
1022	118681 77 3597 25142 0.0570001912 0.4570025416 3 0 0 0 0
1023	118758 77 3597 25142 0.0570001912 0.4570025416 3 0 0 0 0
1025	118835 24 149 149 0.0000001228 0.0000001228 1 0 0 0 0
1062	118859 57 177 64892 0.000000458 1.2570005744 2 65535 65535 131070 8589672450
1063	118916 55 177 64892 0.000000458 1.2570005744 2 8940 8940 17880 159847200
1064	118971 58 177 64892 0.000000458 1.2570005744 2 0.3725 23.84 24.2125 568.48435625
1060	119029 124 177 25142 0.000000458 0.4570025416 5 1 3 7 13
1061	119153 139 256 25142 0.0000006744 0.4570025416 4 1.912e-07 0.2000019672 0.400002758 0.0800009401641
1065	119292 3633 3521 14615 0.057 0.2570005744 126 2000 2125 259875 536158875
1069	122925 48 274 288 0.0000007624 0.0000008064 2 1 2 3 5
1068	122973 48 274 288 0.0000007624 0.0000008064 2 1 2 3 5
1070	123021 48 256 266 0.0000006744 0.0000007184 2 1 2 3 5
1071	123069 6887 3521 25142 0.057 0.4570025416 252 0 224 25428 3752504
1072	129956 6887 3521 25142 0.057 0.4570025416 252 0 224 25428 3752504
1075	136843 77 3597 25142 0.0570001912 0.4570025416 3 0 0 0 0
1076	136920 77 3597 25142 0.0570001912 0.4570025416 3 0 0 0 0
1077	136997 77 3597 25142 0.0570001912 0.4570025416 3 0 0 0 0
1078	137074 77 3597 25142 0.0570001912 0.4570025416 3 0 0 0 0
1079	137151 24 149 149 0.0000001228 0.0000001228 1 0 0 0 0
1082	137175 86 3597 25142 0.0570001912 0.4570025416 3 2000 2125 6138 12567794
1084	137261 77 3597 25142 0.0570001912 0.4570025416 3 0 0 0 0
1085	137338 77 3597 25142 0.0570001912 0.4570025416 3 0 0 0 0
1300	137415 77 3597 25142 0.0570001912 0.4570025416 3 0 0 0 0
1301	137492 5760 3521 14615 0.057 0.2570005744 252 0 112 12714 938126
870	143252 6635 3521 25142 0.057 0.4570025416 252 0 224 25428 3752504
869	149887 6635 3521 25142 0.057 0.4570025416 252 0 224 25428 3752504
871	156522 74 3597 25142 0.0570001912 0.4570025416 3 0 0 0 0
872	156596 74 3597 25142 0.0570001912 0.4570025416 3 0 0 0 0
881	156670 86 3597 25142 0.0570001912 0.4570025416 3 65533 65535 196603 12884246539
882	156756 113 149 25142 0.0000001228 0.4570025416 4 65533 65535 262138 17179082764
885	156869 12 128 128 0 0 1 0 0 0 0
8	156881 8 0 0 0 0 1 0 0 0 0
9	156889 8 0 0 0 0 1 0 0 0 0
24	156897 9 0 0 0 0 1 0 0 0 0
25	156906 9 0 0 0 0 1 0 0 0 0
35	156915 9 0 0 0 0 1 0 0 0 0
36	156924 9 0 0 0 0 1 0 0 0 0
43	156933 76 6035 586743 0.0980001132 9.0380001132 3 52 52 156 8112
44	157009 76 6033 586741 0.0980001132 9.0380001132 3 52 52 156 8112
45	157085 73 6033 586741 0.0980001132 9.0380001132 3 1 3 6 14
56	157158 9 0 0 0 0 1 0 0 0 0
57	157167 9 0 0 0 0 1 0 0 0 0
59	157176 76 6031 586739 0.0980001132 9.0380001132 3 79 79 237 18723
63	157252 76 6031 586739 0.0980001132 9.0380001132 3 72 72 216 15552
64	157328 76 6037 586745 0.0980001132 9.0380001132 3 72 72 216 15552
66	157404 73 6037 586745 0.0980001132 9.0380001132 3 0 0 0 0
67	157477 9 0 0 0 0 1 0 0 0 0
68	157486 155 0 586747 0 9.0380001764 7 0 1 3 3
69	157641 76 6038 586746 0.0980001132 9.0380001132 3 79 79 237 18723
73	157717 76 6038 586746 0.0980001132 9.0380001132 3 72 72 216 15552
78	157793 9 0 0 0 0 1 0 0 0 0
79	157802 9 0 0 0 0 1 0 0 0 0
86	157811 72 2321 586626 0.038 9.038 4 52 52 208 10816
92	157883 72 2314 586622 0.038 9.038 4 45 45 180 8100
93	157955 72 2314 586622 0.038 9.038 4 44 44 176 7744
96	158027 372773 382 656078 0.002 10 21145 0 0 0 0
97	530800 72 2310 586617 0.038 9.038 4 47 47 188 8836
98	530872 133296 1138 655951 0.017 9.998 7457 0 0 0 0
99	664168 121 1912 586558 0.032 9.037 7 0 14 14 196
100	664289 102 2028 3697 0.033 0.058 6 1 6 21 91
101	664391 100251 1138 655951 0.017 9.998 4647 1 4647 10799628 33460847420
106	764642 191551 1138 656078 0.017 10 9264 285 560 2687664 785011208
109	956193 90114 1738 656078 0.029 10 4611 3 19 78638 1356846
111	1046307 220373 1138 656078 0.017 10 10195 1 10195 51974110 353268025670
112	1266680 211089 1138 656078 0.017 10 10195 113 630 3854166 1876135842
113	1477769 190699 1138 656078 0.017 10 10195 0 0 0 0
115	1668468 17350 1625 655087 0.026 9.986 934 2 13 7330 58492
117	1685818 58 5948 586628 0.098 9.038 3 72 72 216 15552
119	1685876 55 5948 586628 0.098 9.038 3 0 0 0 0
120	1685931 10 0 0 0 0 1 0 0 0 0
121	1685941 141 0 586738 0 9.0380000632 7 0 1 3 3
122	1686082 58 5949 586629 0.098 9.038 3 79 79 237 18723
126	1686140 58 5949 586629 0.098 9.038 3 72 72 216 15552
128	1686198 439 139 25137 0 0.4570024476 19 36 2272 3616 5329184
130	1686637 455 139 25137 0 0.4570024476 19 0 8.8e-08 3.088e-07 1.946112e-14
131	1687092 280 0 258 0 0.0000007124 13 0 2 10 14
132	1687372 869 0 25139 0 0.4570024916 39 0 1 19 19
133	1688241 441 141 25138 0 0.4570024476 19 43 2279 3749 5380739
134	1688682 442 146 22644 0.0000001228 0.4070025416 18 43 2279 3670 5374498
137	1689124 441 141 25138 0 0.4570024476 19 36 2272 3616 5329184
138	1689565 442 146 22644 0.0000001228 0.4070025416 18 36 2272 3544 5324000
141	1690007 3136 3590 14958 0.0570000972 0.2570024476 126 2 2 252 504
145	1693143 104 2390 586750 0.0380001132 9.0380002264 4 52 52 208 10816
146	1693247 100 2390 586750 0.0380001132 9.0380002264 4 1 4 10 30
149	1693347 43 3492 6045 0.057 0.0980002264 2 44 44 88 3872
150	1693390 80 154149 590684 3.047 9.092 4 45 45 180 8100
151	1693470 80 154149 590684 3.047 9.092 4 44 44 176 7744
152	1693550 43 3492 6045 0.057 0.0980002264 2 45 45 90 4050
153	1693593 43 3537 6048 0.057 0.0980002264 2 45 45 90 4050
154	1693636 501325 3876 656050 0.062 10 26934 0 0 0 0
155	2194961 100 154144 590678 3.047 9.092 5 16 47 190 7972
156	2195061 106026 5175 656050 0.085 10 5608 0 0 0 0
157	2301087 136 153747 590678 3.041 9.092 7 0 25 55 1075
169	2301223 39487 5175 656050 0.085 10 1869 1 1869 1747515 2177986195
170	2340710 38725 5175 656050 0.085 10 1869 153 624 474005 123724391
171	2379435 34987 5175 656050 0.085 10 1869 0 0 0 0
173	2414422 35480 152819 656002 3.026 9.999 1867 2 13 8349 49293
178	2449902 10 0 0 0 0 1 0 0 0 0
179	2449912 10 0 0 0 0 1 0 0 0 0
181	2449922 79 6040 586748 0.0980002264 9.0380002264 3 79 79 237 18723
185	2450001 79 6040 586748 0.0980002264 9.0380002264 3 72 72 216 15552
186	2450080 422 140 22641 0 0.4070024476 18 36 2272 3544 5324000
188	2450502 439 140 22641 0 0.4070024476 18 0 8.8e-08 3.088e-07 1.946112e-14
189	2450941 280 0 257 0 0.0000007124 13 0 2 10 14
190	2451221 830 0 22643 0 0.4070024916 37 0 1 18 18
191	2452051 424 142 22642 0 0.4070024476 18 43 2279 3670 5374498
192	2452475 466 145 25140 0.0000001228 0.4570025416 19 43 2279 3749 5380739
195	2452941 424 142 22642 0 0.4070024476 18 36 2272 3544 5324000
196	2453365 466 145 25140 0.0000001228 0.4570025416 19 36 2272 3616 5329184
199	2453831 3122 664 11935 0.0070000972 0.2070024476 126 2 2 252 504
205	2456953 85 2039 586330 0.033984720812 9.033984720812 3 44 44 132 5808
208	2457038 85 2039 586330 0.033984720812 9.033984720812 3 45 45 135 6075
209	2457123 85 2042 586333 0.033984720812 9.033984720812 3 45 45 135 6075
210	2457208 74074 1080 655941 0.015 9.998 3899 0 0 0 0
212	2531282 65362 1080 655957 0.015 9.999 3441 0 0 0 0
218	2596644 38 195315 368349 3.619 6.014 2 1 2 3 5
219	2596682 9689 2046 654509 0.034 9.979 467 1 467 109278 34058310
231	2606371 163 0 6429 0 0.105 10 1 2 19 37
237	2606534 85 5356 590385 0.087465974346 9.087465974346 3 44 44 132 5808
240	2606619 85 5356 590385 0.087465974346 9.087465974346 3 45 45 135 6075
241	2606704 85 5359 590388 0.087465974346 9.087465974346 3 45 45 135 6075
244	2606789 26294 5363 655857 0.088 9.998 1384 0 0 0 0
250	2633083 29295 5363 655857 0.088 9.998 1382 1 1382 955653 880793515
251	2662378 38 587053 587440 9.043 9.048 2 1 2 3 5
263	2662416 163 0 6430 0 0.105 10 1 2 19 37
269	2662579 85 5731 590847 0.093058322349 9.093058322349 3 44 44 132 5808
272	2662664 85 5731 590847 0.093058322349 9.093058322349 3 45 45 135 6075
273	2662749 85 5734 590850 0.093058322349 9.093058322349 3 45 45 135 6075
274	2662834 64361 152208 656059 3.015 10 3469 0 0 0 0
276	2727195 90636 5747 656059 0.094 10 4852 0 0 0 0
282	2817831 29317 5747 655960 0.094 9.999 1383 1 1383 957036 882706204
295	2847148 163 0 6431 0 0.105 10 1 2 19 37
301	2847311 85 6053 591241 0.098821217397 9.098821217397 3 44 44 132 5808
304	2847396 85 6053 591241 0.098821217397 9.098821217397 3 45 45 135 6075
305	2847481 85 6056 591244 0.098821217397 9.098821217397 3 45 45 135 6075
308	2847566 26239 157743 655962 3.099 9.999 1381 0 0 0 0
315	2873805 29275 157743 655962 3.099 9.999 1381 1 1381 954271 878883591
327	2903080 163 0 6432 0 0.105 10 1 2 19 37
333	2903243 85 4693 589559 0.076266208328 9.076266208328 3 44 44 132 5808
336	2903328 85 4693 589559 0.076266208328 9.076266208328 3 45 45 135 6075
337	2903413 85 4696 589562 0.076266208328 9.076266208328 3 45 45 135 6075
338	2903498 19766 5119 655997 0.084 9.999 1061 0 0 0 0
340	2923264 57083 4703 655997 0.077 9.999 3046 0 0 0 0
347	2980347 42165 4703 655808 0.077 9.997 1985 1 1985 1971105 2609085985
359	3022512 10 0 0 0 0 1 1 1 1 1
365	3022522 85 1908 586142 0.031389955268 9.031389955268 3 44 44 132 5808
368	3022607 85 1908 586142 0.031389955268 9.031389955268 3 45 45 135 6075
369	3022692 85 1911 586145 0.031389955268 9.031389955268 3 45 45 135 6075
372	3022777 26571 1921 655810 0.032 9.997 1399 0 0 0 0
379	3049348 29661 1921 655810 0.032 9.997 1399 1 1399 979300 913686900
391	3079009 163 0 6433 0 0.105 10 1 2 19 37
397	3079172 85 5067 590051 0.083256449993 9.083256449993 3 44 44 132 5808
400	3079257 85 5067 590051 0.083256449993 9.083256449993 3 45 45 135 6075
401	3079342 145 5070 590402 0.083256449993 9.088 6 16 47 231 9629
402	3079487 215262 4826 656072 0.079 10 11453 0 0 0 0
403	3294749 57 156891 590398 3.088 9.088 3 0 0 0 0
404	3294806 215148 4826 656072 0.079 10 11447 0 0 0 0
423	3509954 163 0 6434 0 0.105 10 1 2 19 37
429	3510117 85 1743 585970 0.029577355213 9.029577355213 3 44 44 132 5808
432	3510202 85 1743 585970 0.029577355213 9.029577355213 3 45 45 135 6075
433	3510287 85 1746 585973 0.029577355213 9.029577355213 3 45 45 135 6075
434	3510372 188733 4774 656062 0.078 10 10047 0 0 0 0
436	3699105 214556 1776 656062 0.03 10 11448 0 0 0 0
442	3913661 28802 152995 656026 3.03 10 1395 1 1395 973710 905874870
443	3942463 99 1776 3377 0.03 0.055 6 1 6 21 91
455	3942562 163 0 6435 0 0.105 10 1 2 19 37
461	3942725 85 1328 585347 0.020429364846 9.020429364846 3 44 44 132 5808
464	3942810 85 1328 585347 0.020429364846 9.020429364846 3 45 45 135 6075
465	3942895 85 1331 585350 0.020429364846 9.020429364846 3 45 45 135 6075
466	3942980 57901 1109 656011 0.016 9.999 3080 0 0 0 0
468	4000881 49116 1109 656045 0.016 10 2618 0 0 0 0
473	4049997 34 1187 1424 0.018 0.023 2 1 2 3 5
474	4050031 4899 1877 655014 0.031 9.986 239 1 239 28680 4579240
475	4054930 4764 155067 655385 3.061 9.991 232 1 232 27028 4189340
487	4059694 163 0 6436 0 0.105 10 1 2 19 37
493	4059857 85 1429 585513 0.023409340573 9.023409340573 3 44 44 132 5808
496	4059942 85 1429 585513 0.023409340573 9.023409340573 3 45 45 135 6075
497	4060027 253 1432 586352 0.023409340573 9.034 12 0 47 276 12702
498	4060280 165934 1628 656069 0.026 10 8880 0 0 0 0
499	4226214 165 1678 586348 0.028 9.034 9 0 0 0 0
500	4226379 165714 1464 656069 0.024 10 8868 0 0 0 0
519	4392093 10 0 0 0 0 1 1 1 1 1
525	4392103 85 1974 586250 0.032763117831 9.032763117831 3 44 44 132 5808
528	4392188 85 1974 586250 0.032763117831 9.032763117831 3 45 45 135 6075
529	4392273 201 1977 587067 0.032763117831 9.043 9 0 47 229 10493
530	4392474 117968 5423 656053 0.089 10 6250 0 0 0 0
531	4510442 114 153483 587063 3.037 9.043 6 0 0 0 0
532	4510556 117903 2002 656053 0.033 10 6247 0 0 0 0
539	4628459 85 2002 3210 0.033 0.053 5 1 5 15 55
551	4628544 163 0 6437 0 0.105 10 1 2 19 37
557	4628707 85 3931 588561 0.062601716756 9.062601716756 3 44 44 132 5808
560	4628792 85 3931 588561 0.062601716756 9.062601716756 3 45 45 135 6075
561	4628877 85 3934 588564 0.062601716756 9.062601716756 3 45 45 135 6075
564	4628962 26372 155216 655868 3.063 9.998 1388 0 0 0 0
571	4655334 29429 155216 655868 3.063 9.998 1388 1 1388 963966 892311194
583	4684763 163 0 6438 0 0.105 10 1 2 19 37
589	4684926 85 5026 589991 0.082919128996 9.082919128996 3 44 44 132 5808
592	4685011 85 5026 589991 0.082919128996 9.082919128996 3 45 45 135 6075
593	4685096 85 5029 589994 0.082919128996 9.082919128996 3 45 45 135 6075
594	4685181 36209 3847 655760 0.061 9.996 1927 0 0 0 0
596	4721390 73509 3847 655870 0.061 9.998 3911 0 0 0 0
603	4794899 42145 5044 655870 0.083 9.998 1984 1 1984 1969120 2605145760
615	4837044 10 0 0 0 0 1 1 1 1 1
621	4837054 82 1982 586257 0.03277608233 9.03277608233 3 44 44 132 5808
624	4837136 82 1982 586257 0.03277608233 9.03277608233 3 45 45 135 6075
625	4837218 82 1985 586260 0.03277608233 9.03277608233 3 45 45 135 6075
628	4837300 26571 2006 655872 0.033 9.998 1399 0 0 0 0
635	4863871 29661 2006 655872 0.033 9.998 1399 1 1399 979300 913686900
647	4893532 163 0 6439 0 0.105 10 1 2 19 37
653	4893695 85 3795 588382 0.060278170027 9.060278170027 3 44 44 132 5808
656	4893780 85 3795 588382 0.060278170027 9.060278170027 3 45 45 135 6075
657	4893865 85 3798 588385 0.060278170027 9.060278170027 3 45 45 135 6075
660	4893950 26389 3835 655744 0.061 9.996 1389 0 0 0 0
667	4920339 29449 3835 655744 0.061 9.996 1389 1 1389 965355 894240515
679	4949788 163 0 6440 0 0.105 10 1 2 19 37
685	4949951 85 5438 590514 0.089455451544 9.089455451544 3 44 44 132 5808
688	4950036 85 5438 590514 0.089455451544 9.089455451544 3 45 45 135 6075
689	4950121 103 5441 590517 0.089455451544 9.089455451544 4 45 47 182 8284
690	4950224 88240 1902 655987 0.031 9.999 4660 0 0 0 0
691	5038464 17 5761 5761 0.094 0.094 1 0 0 0 0
692	5038481 78160 1902 656047 0.031 10 4156 0 0 0 0
696	5116641 102 2090 3733 0.034 0.059 6 1 6 21 91
697	5116743 603 2034 4083 0.033 0.065 34 1 34 595 13685
699	5117346 9356 158548 655394 3.11 9.991 460 1 460 106030 32551210
711	5126702 10 0 0 0 0 1 1 1 1 1
717	5126712 85 3150 587750 0.051714848483 9.051714848483 3 44 44 132 5808
720	5126797 85 3150 587750 0.051714848483 9.051714848483 3 45 45 135 6075
721	5126882 85 3153 587753 0.051714848483 9.051714848483 3 45 45 135 6075
722	5126967 18 586861 586861 9.04 9.04 1 0 0 0 0
724	5126985 26445 3173 655822 0.052 9.997 1392 0 0 0 0
730	5153430 9636 154510 655126 3.052 9.987 464 1 464 107880 33406840
731	5163066 19357 3173 655822 0.052 9.997 927 1 927 430128 265962480
743	5182423 163 0 6441 0 0.105 10 1 2 19 37
749	5182586 85 1004 584788 0.013945144669 9.013945144669 3 44 44 132 5808
752	5182671 85 1004 584788 0.013945144669 9.013945144669 3 45 45 135 6075
753	5182756 85 1007 584791 0.013945144669 9.013945144669 3 45 45 135 6075
756	5182841 26715 1027 655977 0.014 9.999 1407 0 0 0 0
763	5209556 29829 1027 655977 0.014 9.999 1407 1 1407 990528 929445440
775	5239385 163 0 6442 0 0.105 10 1 2 19 37
781	5239548 85 3740 588291 0.059049774688 9.059049774688 3 44 44 132 5808
784	5239633 85 3740 588291 0.059049774688 9.059049774688 3 45 45 135 6075
785	5239718 85 3743 588294 0.059049774688 9.059049774688 3 45 45 135 6075
788	5239803 36272 3784 656038 0.06 10 1989 0 0 0 0
795	5276075 41132 3784 656038 0.06 10 1989 1 1989 1979055 2624886615
807	5317207 10 0 0 0 0 1 1 1 1 1
813	5317217 85 5739 590854 0.093147725489 9.093147725489 3 44 44 132 5808
816	5317302 85 5739 590854 0.093147725489 9.093147725489 3 45 45 135 6075
817	5317387 85 5742 590857 0.093147725489 9.093147725489 3 45 45 135 6075
820	5317472 37266 5769 655980 0.094 9.999 1982 0 0 0 0
827	5354738 42105 5769 655980 0.094 9.999 1982 1 1982 1965153 2597277215
839	5396843 10 0 0 0 0 1 1 1 1 1
1319	5396853 94 1001 584785 0.013945144669 9.013945144669 3 7504 7504 22512 168930048
1320	5396947 94 1001 584785 0.013945144669 9.013945144669 3 7504 7504 22512 168930048
1322	5397041 85 1001 584785 0.013945144669 9.013945144669 3 0 0 0 0
1333	5397126 85 1001 584785 0.013945144669 9.013945144669 3 0 0 0 0
1343	5397211 94 1325 585344 0.020429364846 9.020429364846 3 7504 7504 22512 168930048
1344	5397305 94 1325 585344 0.020429364846 9.020429364846 3 7504 7504 22512 168930048
1346	5397399 85 1325 585344 0.020429364846 9.020429364846 3 0 0 0 0
1357	5397484 85 1325 585344 0.020429364846 9.020429364846 3 0 0 0 0
1367	5397569 94 1426 585510 0.023409340573 9.023409340573 3 7504 7504 22512 168930048
1368	5397663 94 1426 585510 0.023409340573 9.023409340573 3 7504 7504 22512 168930048
1370	5397757 85 1426 585510 0.023409340573 9.023409340573 3 0 0 0 0
1381	5397842 85 1426 585510 0.023409340573 9.023409340573 3 0 0 0 0
1391	5397927 94 1740 585967 0.029577355213 9.029577355213 3 7504 7504 22512 168930048
1392	5398021 94 1740 585967 0.029577355213 9.029577355213 3 7504 7504 22512 168930048
1394	5398115 85 1740 585967 0.029577355213 9.029577355213 3 0 0 0 0
1405	5398200 85 1740 585967 0.029577355213 9.029577355213 3 0 0 0 0
1415	5398285 94 1905 586139 0.031389955268 9.031389955268 3 7504 7504 22512 168930048
1416	5398379 94 1905 586139 0.031389955268 9.031389955268 3 7504 7504 22512 168930048
1418	5398473 85 1905 586139 0.031389955268 9.031389955268 3 0 0 0 0
1429	5398558 85 1905 586139 0.031389955268 9.031389955268 3 0 0 0 0
1439	5398643 94 1971 586247 0.032763117831 9.032763117831 3 7504 7504 22512 168930048
1440	5398737 94 1971 586247 0.032763117831 9.032763117831 3 7504 7504 22512 168930048
1442	5398831 85 1971 586247 0.032763117831 9.032763117831 3 0 0 0 0
1453	5398916 85 1971 586247 0.032763117831 9.032763117831 3 0 0 0 0
1463	5399001 91 1979 586254 0.03277608233 9.03277608233 3 7504 7504 22512 168930048
1464	5399092 91 1979 586254 0.03277608233 9.03277608233 3 7504 7504 22512 168930048
1466	5399183 82 1979 586254 0.03277608233 9.03277608233 3 0 0 0 0
1477	5399265 82 1979 586254 0.03277608233 9.03277608233 3 0 0 0 0
1487	5399347 94 2036 586327 0.033984720812 9.033984720812 3 7504 7504 22512 168930048
1488	5399441 94 2036 586327 0.033984720812 9.033984720812 3 7504 7504 22512 168930048
1490	5399535 85 2036 586327 0.033984720812 9.033984720812 3 0 0 0 0
1501	5399620 85 2036 586327 0.033984720812 9.033984720812 3 0 0 0 0
1511	5399705 94 3147 587747 0.051714848483 9.051714848483 3 7504 7504 22512 168930048
1512	5399799 94 3147 587747 0.051714848483 9.051714848483 3 7504 7504 22512 168930048
1514	5399893 85 3147 587747 0.051714848483 9.051714848483 3 0 0 0 0
1525	5399978 85 3147 587747 0.051714848483 9.051714848483 3 0 0 0 0
1535	5400063 94 3737 588288 0.059049774688 9.059049774688 3 7504 7504 22512 168930048
1536	5400157 94 3737 588288 0.059049774688 9.059049774688 3 7504 7504 22512 168930048
1538	5400251 85 3737 588288 0.059049774688 9.059049774688 3 0 0 0 0
1549	5400336 85 3737 588288 0.059049774688 9.059049774688 3 0 0 0 0
1559	5400421 94 3792 588379 0.060278170027 9.060278170027 3 7504 7504 22512 168930048
1560	5400515 94 3792 588379 0.060278170027 9.060278170027 3 7504 7504 22512 168930048
1562	5400609 85 3792 588379 0.060278170027 9.060278170027 3 0 0 0 0
1573	5400694 85 3792 588379 0.060278170027 9.060278170027 3 0 0 0 0
1583	5400779 94 3928 588558 0.062601716756 9.062601716756 3 7504 7504 22512 168930048
1584	5400873 94 3928 588558 0.062601716756 9.062601716756 3 7504 7504 22512 168930048
1586	5400967 85 3928 588558 0.062601716756 9.062601716756 3 0 0 0 0
1597	5401052 85 3928 588558 0.062601716756 9.062601716756 3 0 0 0 0
1607	5401137 94 4690 589556 0.076266208328 9.076266208328 3 7504 7504 22512 168930048
1608	5401231 94 4690 589556 0.076266208328 9.076266208328 3 7504 7504 22512 168930048
1610	5401325 85 4690 589556 0.076266208328 9.076266208328 3 0 0 0 0
1621	5401410 85 4690 589556 0.076266208328 9.076266208328 3 0 0 0 0
1631	5401495 94 5023 589988 0.082919128996 9.082919128996 3 7504 7504 22512 168930048
1632	5401589 94 5023 589988 0.082919128996 9.082919128996 3 7504 7504 22512 168930048
1634	5401683 85 5023 589988 0.082919128996 9.082919128996 3 0 0 0 0
1645	5401768 85 5023 589988 0.082919128996 9.082919128996 3 0 0 0 0
1655	5401853 94 5064 590048 0.083256449993 9.083256449993 3 7504 7504 22512 168930048
1656	5401947 94 5064 590048 0.083256449993 9.083256449993 3 7504 7504 22512 168930048
1658	5402041 85 5064 590048 0.083256449993 9.083256449993 3 0 0 0 0
1669	5402126 85 5064 590048 0.083256449993 9.083256449993 3 0 0 0 0
1679	5402211 94 5353 590382 0.087465974346 9.087465974346 3 7504 7504 22512 168930048
1680	5402305 94 5353 590382 0.087465974346 9.087465974346 3 7504 7504 22512 168930048
1682	5402399 85 5353 590382 0.087465974346 9.087465974346 3 0 0 0 0
1693	5402484 85 5353 590382 0.087465974346 9.087465974346 3 0 0 0 0
1703	5402569 94 5435 590511 0.089455451544 9.089455451544 3 7504 7504 22512 168930048
1704	5402663 94 5435 590511 0.089455451544 9.089455451544 3 7504 7504 22512 168930048
1706	5402757 85 5435 590511 0.089455451544 9.089455451544 3 0 0 0 0
1717	5402842 85 5435 590511 0.089455451544 9.089455451544 3 0 0 0 0
1727	5402927 94 5728 590844 0.093058322349 9.093058322349 3 7504 7504 22512 168930048
1728	5403021 94 5728 590844 0.093058322349 9.093058322349 3 7504 7504 22512 168930048
1730	5403115 85 5728 590844 0.093058322349 9.093058322349 3 0 0 0 0
1741	5403200 85 5728 590844 0.093058322349 9.093058322349 3 0 0 0 0
1751	5403285 94 5736 590851 0.093147725489 9.093147725489 3 7504 7504 22512 168930048
1752	5403379 94 5736 590851 0.093147725489 9.093147725489 3 7504 7504 22512 168930048
1754	5403473 85 5736 590851 0.093147725489 9.093147725489 3 0 0 0 0
1765	5403558 85 5736 590851 0.093147725489 9.093147725489 3 0 0 0 0
1775	5403643 94 6050 591238 0.098821217397 9.098821217397 3 7504 7504 22512 168930048
1776	5403737 94 6050 591238 0.098821217397 9.098821217397 3 7504 7504 22512 168930048
1778	5403831 85 6050 591238 0.098821217397 9.098821217397 3 0 0 0 0
1789	5403916 85 6050 591238 0.098821217397 9.098821217397 3 0 0 0 0
