file 63828 1588966157                                           
version 2
run CAIN-74-20200508-16:29:14-12741
attr configname CAIN
attr datetime 20200508-16:29:14
attr dist 200
attr experiment CAIN
attr extAllocType "\"CONTIGUOUS_ALLOC\""
attr inifile omnetpp.ini
attr iterationvars "$numUe=20, $pwr=-50, $dist=200, $mob=\"./movements/RWPRPGM-0.0.movements\", $extAllocType=\"CONTIGUOUS_ALLOC\""
attr iterationvars2 "$numUe=20, $pwr=-50, $dist=200, $mob=\"./movements/RWPRPGM-0.0.movements\", $extAllocType=\"CONTIGUOUS_ALLOC\", $repetition=4"
attr measurement "$numUe=20, $pwr=-50, $dist=200, $mob=\"./movements/RWPRPGM-0.0.movements\", $extAllocType=\"CONTIGUOUS_ALLOC\""
attr mob "\"./movements/RWPRPGM-0.0.movements\""
attr network lte.simulations.networks.CAIN
attr numUe 20
attr processid 12741
attr pwr -50
attr repetition 4
attr replication #4
attr resultdir results
attr runnumber 74
attr seedset 4
param **.**.amcMode "\"AUTO\""
param **.amcMode "\"D2D\""
param **.cainNetwork true
param **.channelControl.alpha 1.0
param **.channelControl.carrierFrequency 2100e+6Hz
param **.channelControl.pMax 10W
param **.d2dCqi 7
param **.deployer.numRbDl 50
param **.deployer.numRbUl 50
param **.distThresh ${dist=200}
param **.fbDelay 1
param **.feedbackComputation "xmldoc(\"config_channel.xml\")"
param **.mobility.constraintAreaMaxX 1000m
param **.mobility.constraintAreaMaxY 1000m
param **.mobility.constraintAreaMaxZ 0m
param **.mobility.constraintAreaMinX 0m
param **.mobility.constraintAreaMinY 0m
param **.mobility.constraintAreaMinZ 0m
param **.nic.phy.channelModel "xmldoc(\"config_channel.xml\")"
param **.numBands 50
param **.pwrThresh "${pwr= -50}"
param **.qtdThresh 3
param **.rbAllocationType "\"localized\""
param **.routingRecorder.enabled false
param **.tcpApp[*].tClose -1s
param **.ueD2DTx[*].mobility.changeAngleBy "normal(0deg, 30deg)"
param **.ueD2DTx[*].mobility.changeInterval "normal(5s, 0.1s)"
param **.ueD2DTx[*].mobility.nodeId -1
param **.ueD2DTx[*].mobility.speed "normal(2mps, 0.01mps)"
param **.ueD2DTx[*].mobility.traceFile "${mob=\"./movements/RWP-0.0.movements\",\"./movements/RWP-0.5.movements\",\"./movements/RPGM-0.0.movements\",\"./movements/RPGM-0.5.movements\",\"./movements/RWPRPGM-0.0.movements\",\"./movements/RWPRPGM-0.5.movements\"}"
param **.ueD2DTx[*].mobilityType "\"BonnMotionMobility\""
param **.usePreconfiguredTxParams false
param *.eNodeB*.numX2Apps 1
param *.eNodeB*.x2App[*].server.localPort "5000 + ancestorIndex(1)"
param *.eNodeB.d2dCapable false
param *.eNodeB.mobility.initFromDisplayString false
param *.eNodeB.mobility.initialX 300m
param *.eNodeB.mobility.initialY 300m
param *.eNodeB.nic.phy.enableD2DCqiReporting true
param *.eNodeB.txPower 19952.62315mw
param *.eNodeB.x2App[0].client.connectAddress "\"eNodeB1%x2ppp0\""
param *.eNodeB1.d2dCapable true
param *.eNodeB1.mobility.initFromDisplayString false
param *.eNodeB1.mobility.initialX 700m
param *.eNodeB1.mobility.initialY 300m
param *.eNodeB1.nic.phy.enableD2DCqiReporting true
param *.eNodeB1.txPower 19952.62315mw
param *.eNodeB1.x2App[0].client.connectAddress "\"eNodeB%x2ppp0\""
param *.extCell[*].bandAllocationType "${extAllocType=\"FULL_ALLOC\",\"RANDOM_ALLOC\",\"CONTIGUOUS_ALLOC\"}"
param *.extCell[*].bandUtilization 0.5
param *.extCell[*].txDirection "\"ANISOTROPIC\""
param *.extCell[*].txPower 20
param *.extCell[0].position_x 100m
param *.extCell[0].position_y 600m
param *.extCell[0].txAngle 315
param *.extCell[1].position_x 600m
param *.extCell[1].position_y 600m
param *.extCell[1].txAngle 225
param *.numExtCells 2
param *.numUeCell 0
param *.numUeD2DRx 1
param *.numUeD2DTx 1
param *.ue*.macCellId 1
param *.ue*.masterId 1
param *.ue*.mobility.initFromDisplayString false
param *.ue*[0].macCellId 1
param *.ue*[0].masterId 1
param *.ue*[0].mobility.initFromDisplayString false
param *.ueD2D*.numTcpApps 1
param *.ueD2D*[*].d2dCapable true
param *.ueD2D*[0].d2dCapable false
param *.ueD2D*[0].numTcpApps 1
param *.ueD2DRx[0].mobility.initialX 310m
param *.ueD2DRx[0].mobility.initialY 350m
param *.ueD2DRx[0].tcpApp[*].localPort 1000
param *.ueD2DRx[0].tcpApp[*].typename "\"TCPSinkApp\""
param *.ueD2DTx*.nic.d2dPeerAddresses "\"ueD2DTx[1]\""
param *.ueD2DTx*.tcpApp[*].connectAddress "\"ueD2DTx[0]\""
param *.ueD2DTx*.tcpApp[*].localAddress "\"ueD2DTx\""
param *.ueD2DTx*.tcpApp[*].localPort 1000
param *.ueD2DTx*.tcpApp[*].sendBytes 1GiB
param *.ueD2DTx*.tcpApp[*].typename "\"TCPSessionApp\""
param *.ueD2DTx*.tcpApp[0].active true
param *.ueD2DTx*.tcpApp[0].connectPort 1000
param *.ueD2DTx*.tcpApp[0].tOpen uniform(0.010s,0.1s)
param *.ueD2DTx*.tcpApp[0].tSend uniform(0.15s,0.5s)
param *.ueD2DTx[0].mobility.initialX 290m
param *.ueD2DTx[0].mobility.initialY 350m
param *.ueD2DTx[0].tcpApp[*].localPort 1000
param *.ueD2DTx[0].tcpApp[*].sendBytes 1GiB
param *.ueD2DTx[0].tcpApp[*].typename "\"TCPSessionApp\""
param *.ueD2DTx[0].tcpApp[0].active true
param *.ueD2DTx[0].tcpApp[0].connectAddress "\"ueD2DRx[0]\""
param *.ueD2DTx[0].tcpApp[0].connectPort 1000
param *.ueD2DTx[0].tcpApp[0].localAddress "\"ueD2DTx[0]\""
param *.ueD2DTx[0].tcpApp[0].tOpen uniform(0.010s,0.1s)
param *.ueD2DTx[0].tcpApp[0].tSend uniform(0.15s,0.5s)
param *.ueD2DTx[1].mobility.initialX 690m
param *.ueD2DTx[1].mobility.initialY 250m

vector 8  CAIN.server.ppp[0].queue  queueLength:vector  ETV
attr interpolationmode  sample-hold
attr title  "queue length, vector"
vector 9  CAIN.server.ppp[0].ppp  txState:vector  ETV
attr interpolationmode  sample-hold
attr title  "tx state, vector"
vector 24  CAIN.router.ppp[0].queue  queueLength:vector  ETV
attr interpolationmode  sample-hold
attr title  "queue length, vector"
vector 25  CAIN.router.ppp[0].ppp  txState:vector  ETV
attr interpolationmode  sample-hold
attr title  "tx state, vector"
vector 35  CAIN.router.ppp[1].queue  queueLength:vector  ETV
attr interpolationmode  sample-hold
attr title  "queue length, vector"
vector 36  CAIN.router.ppp[1].ppp  txState:vector  ETV
attr interpolationmode  sample-hold
attr title  "tx state, vector"
vector 56  CAIN.pgw.ppp[0].queue  queueLength:vector  ETV
attr interpolationmode  sample-hold
attr title  "queue length, vector"
vector 57  CAIN.pgw.ppp[0].ppp  txState:vector  ETV
attr interpolationmode  sample-hold
attr title  "tx state, vector"
vector 67  CAIN.pgw.ppp[1].queue  queueLength:vector  ETV
attr interpolationmode  sample-hold
attr title  "queue length, vector"
vector 68  CAIN.pgw.ppp[1].ppp  txState:vector  ETV
attr interpolationmode  sample-hold
attr title  "tx state, vector"
vector 78  CAIN.pgw.pppInterface.queue  queueLength:vector  ETV
attr interpolationmode  sample-hold
attr title  "queue length, vector"
vector 79  CAIN.pgw.pppInterface.ppp  txState:vector  ETV
attr interpolationmode  sample-hold
attr title  "tx state, vector"
vector 120  CAIN.eNodeB.pppIf.queue  queueLength:vector  ETV
attr interpolationmode  sample-hold
attr title  "queue length, vector"
vector 121  CAIN.eNodeB.pppIf.ppp  txState:vector  ETV
attr interpolationmode  sample-hold
attr title  "tx state, vector"
vector 131  CAIN.eNodeB.x2ppp[0].queue  queueLength:vector  ETV
attr interpolationmode  sample-hold
attr title  "queue length, vector"
vector 132  CAIN.eNodeB.x2ppp[0].ppp  txState:vector  ETV
attr interpolationmode  sample-hold
attr title  "tx state, vector"
vector 178  CAIN.eNodeB1.pppIf.queue  queueLength:vector  ETV
attr interpolationmode  sample-hold
attr title  "queue length, vector"
vector 179  CAIN.eNodeB1.pppIf.ppp  txState:vector  ETV
attr interpolationmode  sample-hold
attr title  "tx state, vector"
vector 189  CAIN.eNodeB1.x2ppp[0].queue  queueLength:vector  ETV
attr interpolationmode  sample-hold
attr title  "queue length, vector"
vector 190  CAIN.eNodeB1.x2ppp[0].ppp  txState:vector  ETV
attr interpolationmode  sample-hold
attr title  "tx state, vector"
vector 231  CAIN.ueD2DTx[0].nic.phy  servingCell:vector  ETV
attr source  servingCell
attr title  "ID of the serving eNodeB for the UE, vector"
attr unit  ""
vector 263  CAIN.ueD2DTx[1].nic.phy  servingCell:vector  ETV
attr source  servingCell
attr title  "ID of the serving eNodeB for the UE, vector"
attr unit  ""
vector 295  CAIN.ueD2DTx[2].nic.phy  servingCell:vector  ETV
attr source  servingCell
attr title  "ID of the serving eNodeB for the UE, vector"
attr unit  ""
vector 327  CAIN.ueD2DTx[3].nic.phy  servingCell:vector  ETV
attr source  servingCell
attr title  "ID of the serving eNodeB for the UE, vector"
attr unit  ""
vector 359  CAIN.ueD2DTx[4].nic.phy  servingCell:vector  ETV
attr source  servingCell
attr title  "ID of the serving eNodeB for the UE, vector"
attr unit  ""
vector 391  CAIN.ueD2DTx[5].nic.phy  servingCell:vector  ETV
attr source  servingCell
attr title  "ID of the serving eNodeB for the UE, vector"
attr unit  ""
vector 423  CAIN.ueD2DTx[6].nic.phy  servingCell:vector  ETV
attr source  servingCell
attr title  "ID of the serving eNodeB for the UE, vector"
attr unit  ""
vector 455  CAIN.ueD2DTx[7].nic.phy  servingCell:vector  ETV
attr source  servingCell
attr title  "ID of the serving eNodeB for the UE, vector"
attr unit  ""
vector 487  CAIN.ueD2DTx[8].nic.phy  servingCell:vector  ETV
attr source  servingCell
attr title  "ID of the serving eNodeB for the UE, vector"
attr unit  ""
vector 519  CAIN.ueD2DTx[9].nic.phy  servingCell:vector  ETV
attr source  servingCell
attr title  "ID of the serving eNodeB for the UE, vector"
attr unit  ""
vector 551  CAIN.ueD2DTx[10].nic.phy  servingCell:vector  ETV
attr source  servingCell
attr title  "ID of the serving eNodeB for the UE, vector"
attr unit  ""
vector 583  CAIN.ueD2DTx[11].nic.phy  servingCell:vector  ETV
attr source  servingCell
attr title  "ID of the serving eNodeB for the UE, vector"
attr unit  ""
vector 615  CAIN.ueD2DTx[12].nic.phy  servingCell:vector  ETV
attr source  servingCell
attr title  "ID of the serving eNodeB for the UE, vector"
attr unit  ""
vector 647  CAIN.ueD2DTx[13].nic.phy  servingCell:vector  ETV
attr source  servingCell
attr title  "ID of the serving eNodeB for the UE, vector"
attr unit  ""
vector 679  CAIN.ueD2DTx[14].nic.phy  servingCell:vector  ETV
attr source  servingCell
attr title  "ID of the serving eNodeB for the UE, vector"
attr unit  ""
vector 711  CAIN.ueD2DTx[15].nic.phy  servingCell:vector  ETV
attr source  servingCell
attr title  "ID of the serving eNodeB for the UE, vector"
attr unit  ""
vector 743  CAIN.ueD2DTx[16].nic.phy  servingCell:vector  ETV
attr source  servingCell
attr title  "ID of the serving eNodeB for the UE, vector"
attr unit  ""
vector 775  CAIN.ueD2DTx[17].nic.phy  servingCell:vector  ETV
attr source  servingCell
attr title  "ID of the serving eNodeB for the UE, vector"
attr unit  ""
vector 807  CAIN.ueD2DTx[18].nic.phy  servingCell:vector  ETV
attr source  servingCell
attr title  "ID of the serving eNodeB for the UE, vector"
attr unit  ""
vector 839  CAIN.ueD2DTx[19].nic.phy  servingCell:vector  ETV
attr source  servingCell
attr title  "ID of the serving eNodeB for the UE, vector"
attr unit  ""
vector 863  CAIN.eNodeB.sctp  "Throughput of Association 3"  ETV
vector 885  CAIN.eNodeB1.sctp  "Throughput of Association 4"  ETV
vector 907  CAIN.eNodeB.sctp  "Throughput of Association 1"  ETV
vector 927  CAIN.eNodeB.sctp  "Fast Recovery State 1:10.0.5.2"  ETV
vector 956  CAIN.eNodeB1.sctp  "Throughput of Association 2"  ETV
vector 976  CAIN.eNodeB1.sctp  "Fast Recovery State 2:10.0.5.1"  ETV
vector 128  CAIN.eNodeB.x2ppp[0].queue  rcvdPk:vector(packetBytes)  ETV
attr interpolationmode  none
attr title  "received packets, vector(packetBytes)"
vector 130  CAIN.eNodeB.x2ppp[0].queue  queueingTime:vector  ETV
attr interpolationmode  none
attr title  "queueing time, vector"
vector 186  CAIN.eNodeB1.x2ppp[0].queue  rcvdPk:vector(packetBytes)  ETV
attr interpolationmode  none
attr title  "received packets, vector(packetBytes)"
vector 188  CAIN.eNodeB1.x2ppp[0].queue  queueingTime:vector  ETV
attr interpolationmode  none
attr title  "queueing time, vector"
vector 137  CAIN.eNodeB.x2ppp[0].ppp  rcvdPkFromHL:vector(packetBytes)  ETV
attr interpolationmode  none
attr source  packetReceivedFromUpper
attr title  "packets received from higher layer, vector(packetBytes)"
vector 133  CAIN.eNodeB.x2ppp[0].ppp  txPk:vector(packetBytes)  ETV
attr interpolationmode  none
attr source  packetSentToLower
attr title  "packets transmitted, vector(packetBytes)"
vector 195  CAIN.eNodeB1.x2ppp[0].ppp  rcvdPkFromHL:vector(packetBytes)  ETV
attr interpolationmode  none
attr source  packetReceivedFromUpper
attr title  "packets received from higher layer, vector(packetBytes)"
vector 191  CAIN.eNodeB1.x2ppp[0].ppp  txPk:vector(packetBytes)  ETV
attr interpolationmode  none
attr source  packetSentToLower
attr title  "packets transmitted, vector(packetBytes)"
vector 192  CAIN.eNodeB1.x2ppp[0].ppp  rxPkOk:vector(packetBytes)  ETV
attr interpolationmode  none
attr source  rxPkOk
attr title  "packets received OK, vector(packetBytes)"
vector 196  CAIN.eNodeB1.x2ppp[0].ppp  passedUpPk:vector(packetBytes)  ETV
attr interpolationmode  none
attr source  packetSentToUpper
attr title  "packets passed to higher layer, vector(packetBytes)"
vector 134  CAIN.eNodeB.x2ppp[0].ppp  rxPkOk:vector(packetBytes)  ETV
attr interpolationmode  none
attr source  rxPkOk
attr title  "packets received OK, vector(packetBytes)"
vector 138  CAIN.eNodeB.x2ppp[0].ppp  passedUpPk:vector(packetBytes)  ETV
attr interpolationmode  none
attr source  packetSentToUpper
attr title  "packets passed to higher layer, vector(packetBytes)"
vector 1005  CAIN.eNodeB1.sctp  "Throughput of Association 4"  ETV
vector 882  CAIN.eNodeB1.sctp  "Peer Rwnd 4"  ETV
vector 1025  CAIN.eNodeB1.sctp  "Fast Recovery State 5:10.0.4.1"  ETV
vector 1052  CAIN.eNodeB1.sctp  "Fast Recovery State 5:10.0.2.2"  ETV
vector 1079  CAIN.eNodeB1.sctp  "Fast Recovery State 5:10.0.5.1"  ETV
vector 1108  CAIN.eNodeB.sctp  "Throughput of Association 3"  ETV
vector 860  CAIN.eNodeB.sctp  "Peer Rwnd 3"  ETV
vector 1128  CAIN.eNodeB.sctp  "Fast Recovery State 6:10.0.4.2"  ETV
vector 1155  CAIN.eNodeB.sctp  "Fast Recovery State 6:10.0.3.2"  ETV
vector 1182  CAIN.eNodeB.sctp  "Fast Recovery State 6:10.0.5.2"  ETV
vector 904  CAIN.eNodeB.sctp  "Peer Rwnd 1"  ETV
vector 1209  CAIN.eNodeB.sctp  "Fast Recovery State 1:10.0.4.2"  ETV
vector 1236  CAIN.eNodeB.sctp  "Fast Recovery State 1:10.0.3.2"  ETV
vector 953  CAIN.eNodeB1.sctp  "Peer Rwnd 2"  ETV
vector 1263  CAIN.eNodeB1.sctp  "Fast Recovery State 2:10.0.4.1"  ETV
vector 1290  CAIN.eNodeB1.sctp  "Fast Recovery State 2:10.0.2.2"  ETV
vector 1035  CAIN.eNodeB1.sctp  "Slow Start Threshold 5:10.0.2.2"  ETV
vector 1036  CAIN.eNodeB1.sctp  "Congestion Window 5:10.0.2.2"  ETV
vector 1037  CAIN.eNodeB1.sctp  "Bandwidth 5:10.0.2.2"  ETV
vector 1040  CAIN.eNodeB1.sctp  "HB Sent 5:10.0.2.2"  ETV
vector 1033  CAIN.eNodeB1.sctp  "RTO 5:10.0.2.2"  ETV
vector 1008  CAIN.eNodeB1.sctp  "Slow Start Threshold 5:10.0.4.1"  ETV
vector 1009  CAIN.eNodeB1.sctp  "Congestion Window 5:10.0.4.1"  ETV
vector 1010  CAIN.eNodeB1.sctp  "Bandwidth 5:10.0.4.1"  ETV
vector 1013  CAIN.eNodeB1.sctp  "HB Sent 5:10.0.4.1"  ETV
vector 1006  CAIN.eNodeB1.sctp  "RTO 5:10.0.4.1"  ETV
vector 1062  CAIN.eNodeB1.sctp  "Slow Start Threshold 5:10.0.5.1"  ETV
vector 1063  CAIN.eNodeB1.sctp  "Congestion Window 5:10.0.5.1"  ETV
vector 1064  CAIN.eNodeB1.sctp  "Bandwidth 5:10.0.5.1"  ETV
vector 1060  CAIN.eNodeB1.sctp  "RTO 5:10.0.5.1"  ETV
vector 1138  CAIN.eNodeB.sctp  "Slow Start Threshold 6:10.0.3.2"  ETV
vector 1139  CAIN.eNodeB.sctp  "Congestion Window 6:10.0.3.2"  ETV
vector 1140  CAIN.eNodeB.sctp  "Bandwidth 6:10.0.3.2"  ETV
vector 1143  CAIN.eNodeB.sctp  "HB Sent 6:10.0.3.2"  ETV
vector 1136  CAIN.eNodeB.sctp  "RTO 6:10.0.3.2"  ETV
vector 1111  CAIN.eNodeB.sctp  "Slow Start Threshold 6:10.0.4.2"  ETV
vector 1112  CAIN.eNodeB.sctp  "Congestion Window 6:10.0.4.2"  ETV
vector 1113  CAIN.eNodeB.sctp  "Bandwidth 6:10.0.4.2"  ETV
vector 1116  CAIN.eNodeB.sctp  "HB Sent 6:10.0.4.2"  ETV
vector 1109  CAIN.eNodeB.sctp  "RTO 6:10.0.4.2"  ETV
vector 1165  CAIN.eNodeB.sctp  "Slow Start Threshold 6:10.0.5.2"  ETV
vector 1166  CAIN.eNodeB.sctp  "Congestion Window 6:10.0.5.2"  ETV
vector 1167  CAIN.eNodeB.sctp  "Bandwidth 6:10.0.5.2"  ETV
vector 1163  CAIN.eNodeB.sctp  "RTO 6:10.0.5.2"  ETV
vector 916  CAIN.eNodeB.sctp  "HB ACK Sent 1:10.0.5.2"  ETV
vector 917  CAIN.eNodeB.sctp  "HB Received 1:10.0.5.2"  ETV
vector 965  CAIN.eNodeB1.sctp  "HB ACK Sent 2:10.0.5.1"  ETV
vector 966  CAIN.eNodeB1.sctp  "HB Received 2:10.0.5.1"  ETV
vector 1219  CAIN.eNodeB.sctp  "Slow Start Threshold 1:10.0.3.2"  ETV
vector 1220  CAIN.eNodeB.sctp  "Congestion Window 1:10.0.3.2"  ETV
vector 1221  CAIN.eNodeB.sctp  "Bandwidth 1:10.0.3.2"  ETV
vector 1224  CAIN.eNodeB.sctp  "HB Sent 1:10.0.3.2"  ETV
vector 1217  CAIN.eNodeB.sctp  "RTO 1:10.0.3.2"  ETV
vector 1192  CAIN.eNodeB.sctp  "Slow Start Threshold 1:10.0.4.2"  ETV
vector 1193  CAIN.eNodeB.sctp  "Congestion Window 1:10.0.4.2"  ETV
vector 1194  CAIN.eNodeB.sctp  "Bandwidth 1:10.0.4.2"  ETV
vector 1197  CAIN.eNodeB.sctp  "HB Sent 1:10.0.4.2"  ETV
vector 1190  CAIN.eNodeB.sctp  "RTO 1:10.0.4.2"  ETV
vector 910  CAIN.eNodeB.sctp  "Slow Start Threshold 1:10.0.5.2"  ETV
vector 911  CAIN.eNodeB.sctp  "Congestion Window 1:10.0.5.2"  ETV
vector 912  CAIN.eNodeB.sctp  "Bandwidth 1:10.0.5.2"  ETV
vector 908  CAIN.eNodeB.sctp  "RTO 1:10.0.5.2"  ETV
vector 1273  CAIN.eNodeB1.sctp  "Slow Start Threshold 2:10.0.2.2"  ETV
vector 1274  CAIN.eNodeB1.sctp  "Congestion Window 2:10.0.2.2"  ETV
vector 1275  CAIN.eNodeB1.sctp  "Bandwidth 2:10.0.2.2"  ETV
vector 1278  CAIN.eNodeB1.sctp  "HB Sent 2:10.0.2.2"  ETV
vector 1271  CAIN.eNodeB1.sctp  "RTO 2:10.0.2.2"  ETV
vector 1246  CAIN.eNodeB1.sctp  "Slow Start Threshold 2:10.0.4.1"  ETV
vector 1247  CAIN.eNodeB1.sctp  "Congestion Window 2:10.0.4.1"  ETV
vector 1248  CAIN.eNodeB1.sctp  "Bandwidth 2:10.0.4.1"  ETV
vector 1251  CAIN.eNodeB1.sctp  "HB Sent 2:10.0.4.1"  ETV
vector 1244  CAIN.eNodeB1.sctp  "RTO 2:10.0.4.1"  ETV
vector 959  CAIN.eNodeB1.sctp  "Slow Start Threshold 2:10.0.5.1"  ETV
vector 960  CAIN.eNodeB1.sctp  "Congestion Window 2:10.0.5.1"  ETV
vector 961  CAIN.eNodeB1.sctp  "Bandwidth 2:10.0.5.1"  ETV
vector 957  CAIN.eNodeB1.sctp  "RTO 2:10.0.5.1"  ETV
vector 1173  CAIN.eNodeB.sctp  "HB ACK Received 6:10.0.5.2"  ETV
vector 1164  CAIN.eNodeB.sctp  "RTT 6:10.0.5.2"  ETV
vector 1070  CAIN.eNodeB1.sctp  "HB ACK Received 5:10.0.5.1"  ETV
vector 1061  CAIN.eNodeB1.sctp  "RTT 5:10.0.5.1"  ETV
vector 1171  CAIN.eNodeB.sctp  "HB ACK Sent 6:10.0.5.2"  ETV
vector 1172  CAIN.eNodeB.sctp  "HB Received 6:10.0.5.2"  ETV
vector 1068  CAIN.eNodeB1.sctp  "HB ACK Sent 5:10.0.5.1"  ETV
vector 1069  CAIN.eNodeB1.sctp  "HB Received 5:10.0.5.1"  ETV
vector 967  CAIN.eNodeB1.sctp  "HB ACK Received 2:10.0.5.1"  ETV
vector 958  CAIN.eNodeB1.sctp  "RTT 2:10.0.5.1"  ETV
vector 918  CAIN.eNodeB.sctp  "HB ACK Received 1:10.0.5.2"  ETV
vector 909  CAIN.eNodeB.sctp  "RTT 1:10.0.5.2"  ETV
vector 96  CAIN.eNodeB.nic.mac  receivedPacketFromLowerLayer:vector(packetBytes)  ETV
attr interpolationmode  none
attr source  receivedPacketFromLowerLayer
vector 1305  CAIN.eNodeB.sctp  "SendQueue of Association 6"  ETV
vector 1168  CAIN.eNodeB.sctp  "TSN Sent 6:10.0.5.2"  ETV
vector 1175  CAIN.eNodeB.sctp  "Outstanding Bytes 6:10.0.5.2"  ETV
vector 848  CAIN.eNodeB.sctp  "Outstanding Bytes 3:Total"  ETV
vector 1174  CAIN.eNodeB.sctp  "Queued Sent Bytes 6:10.0.5.2"  ETV
vector 847  CAIN.eNodeB.sctp  "Queued Sent Bytes 3:Total"  ETV
vector 963  CAIN.eNodeB1.sctp  "TSN Received 2:10.0.5.1"  ETV
vector 939  CAIN.eNodeB1.sctp  "Queued Received Bytes 2:Total"  ETV
vector 935  CAIN.eNodeB1.sctp  "Advertised Receiver Window 2"  ETV
vector 944  CAIN.eNodeB1.sctp  "Number of Total Gap Blocks Stored 2"  ETV
vector 945  CAIN.eNodeB1.sctp  "Number of Revokable Gap Blocks Stored 2"  ETV
vector 946  CAIN.eNodeB1.sctp  "Number of Non-Revokable Gap Blocks Stored 2"  ETV
vector 947  CAIN.eNodeB1.sctp  "Number of Duplicate TSNs Stored 2"  ETV
vector 951  CAIN.eNodeB1.sctp  "Length of SACK Sent 2"  ETV
vector 948  CAIN.eNodeB1.sctp  "Number of Revokable Gap Blocks Sent 2"  ETV
vector 949  CAIN.eNodeB1.sctp  "Number of Non-Revokable Gap Blocks Sent 2"  ETV
vector 950  CAIN.eNodeB1.sctp  "Number of Duplicate TSNs Sent 2"  ETV
vector 955  CAIN.eNodeB1.sctp  "End to End Delay of Association 2"  ETV
vector 199  CAIN.eNodeB1.x2App[0].client  rcvdPk:vector(packetBytes)  ETV
attr interpolationmode  none
attr source  rcvdPk
attr title  "packets received, vector(packetBytes)"
vector 1304  CAIN.eNodeB.sctp  "Number of Gap Blocks in Last SACK of Association 6"  ETV
vector 849  CAIN.eNodeB.sctp  "Number of Revokable Gap Blocks in SACK 3"  ETV
vector 850  CAIN.eNodeB.sctp  "Number of Non-Revokable Gap Blocks in SACK 3"  ETV
vector 1185  CAIN.eNodeB.sctp  "TSN Acked CumAck 6:10.0.5.2"  ETV
vector 1151  CAIN.eNodeB.sctp  "Number of Gap Acked Chunks in Last SACK 6:10.0.3.2"  ETV
vector 1152  CAIN.eNodeB.sctp  "Number of Non-Revokable Gap Acked Chunks in Last SACK 6:10.0.3.2"  ETV
vector 1153  CAIN.eNodeB.sctp  "Number of Gap Missed Chunks in Last SACK 6:10.0.3.2"  ETV
vector 1124  CAIN.eNodeB.sctp  "Number of Gap Acked Chunks in Last SACK 6:10.0.4.2"  ETV
vector 1125  CAIN.eNodeB.sctp  "Number of Non-Revokable Gap Acked Chunks in Last SACK 6:10.0.4.2"  ETV
vector 1126  CAIN.eNodeB.sctp  "Number of Gap Missed Chunks in Last SACK 6:10.0.4.2"  ETV
vector 1178  CAIN.eNodeB.sctp  "Number of Gap Acked Chunks in Last SACK 6:10.0.5.2"  ETV
vector 1179  CAIN.eNodeB.sctp  "Number of Non-Revokable Gap Acked Chunks in Last SACK 6:10.0.5.2"  ETV
vector 1180  CAIN.eNodeB.sctp  "Number of Gap Missed Chunks in Last SACK 6:10.0.5.2"  ETV
vector 859  CAIN.eNodeB.sctp  "Arwnd in Last SACK 3"  ETV
vector 1187  CAIN.eNodeB.sctp  "TSN PseudoCumAck 6:10.0.5.2"  ETV
vector 1188  CAIN.eNodeB.sctp  "TSN RTXPseudoCumAck 6:10.0.5.2"  ETV
vector 1181  CAIN.eNodeB.sctp  "Partial Bytes Acked 6:10.0.5.2"  ETV
vector 1333  CAIN.ueD2DTx[16].tcp  tcpRcvQueueBytes  ETV
vector 1320  CAIN.ueD2DTx[16].tcp  "advertised window"  ETV
vector 1319  CAIN.ueD2DTx[16].tcp  "receive window"  ETV
vector 1322  CAIN.ueD2DTx[16].tcp  "sent ack"  ETV
vector 717  CAIN.ueD2DTx[16].nic.pdcpRrc  receivedPacketFromUpperLayer:vector(packetBytes)  ETV
attr interpolationmode  none
attr source  receivedPacketFromUpperLayer
vector 720  CAIN.ueD2DTx[16].nic.pdcpRrc  sentPacketToLowerLayer:vector(packetBytes)  ETV
attr interpolationmode  none
attr source  sentPacketToLowerLayer
vector 721  CAIN.ueD2DTx[16].nic.mac  receivedPacketFromUpperLayer:vector(packetBytes)  ETV
attr interpolationmode  none
attr source  receivedPacketFromUpperLayer
vector 731  CAIN.ueD2DTx[16].nic.mac  CainHopMessageSent:vector  ETV
attr interpolationmode  none
attr title  "# of Sent CAIN hop message, vector"
vector 724  CAIN.ueD2DTx[16].nic.mac  sentPacketToLowerLayer:vector(packetBytes)  ETV
attr interpolationmode  none
attr source  sentPacketToLowerLayer
vector 210  CAIN.ueD2DTx[0].nic.mac  receivedPacketFromLowerLayer:vector(packetBytes)  ETV
attr interpolationmode  none
attr source  receivedPacketFromLowerLayer
vector 212  CAIN.ueD2DTx[0].nic.mac  sentPacketToLowerLayer:vector(packetBytes)  ETV
attr interpolationmode  none
attr source  sentPacketToLowerLayer
vector 466  CAIN.ueD2DTx[8].nic.mac  receivedPacketFromLowerLayer:vector(packetBytes)  ETV
attr interpolationmode  none
attr source  receivedPacketFromLowerLayer
vector 468  CAIN.ueD2DTx[8].nic.mac  sentPacketToLowerLayer:vector(packetBytes)  ETV
attr interpolationmode  none
attr source  sentPacketToLowerLayer
vector 111  CAIN.eNodeB.nic.mac  racpkt:vector  ETV
attr interpolationmode  none
attr title  "eNB received racpkt message, vector"
vector 112  CAIN.eNodeB.nic.mac  racDistanceSignal:vector  ETV
attr interpolationmode  none
attr title  "Rac distance to enb, vector"
vector 113  CAIN.eNodeB.nic.mac  racServedDevsSignal:vector  ETV
attr interpolationmode  none
attr title  "# of devices served on rac arriavall, vector"
vector 106  CAIN.eNodeB.nic.mac  DistanceSignal:vector  ETV
attr interpolationmode  none
attr title  "Distance to enb, vector"
vector 101  CAIN.eNodeB.nic.mac  CainHopMessage:vector  ETV
attr interpolationmode  none
attr title  "eNB received CAIN hop message, vector"
vector 98  CAIN.eNodeB.nic.mac  sentPacketToLowerLayer:vector(packetBytes)  ETV
attr interpolationmode  none
attr source  sentPacketToLowerLayer
vector 473  CAIN.ueD2DTx[8].nic.mac  DropedHopMessage:vector  ETV
attr interpolationmode  none
attr title  "Droped Hop CAIN message due to RB not available, vector"
vector 1357  CAIN.ueD2DTx[3].tcp  tcpRcvQueueBytes  ETV
vector 1344  CAIN.ueD2DTx[3].tcp  "advertised window"  ETV
vector 1343  CAIN.ueD2DTx[3].tcp  "receive window"  ETV
vector 1346  CAIN.ueD2DTx[3].tcp  "sent ack"  ETV
vector 301  CAIN.ueD2DTx[3].nic.pdcpRrc  receivedPacketFromUpperLayer:vector(packetBytes)  ETV
attr interpolationmode  none
attr source  receivedPacketFromUpperLayer
vector 304  CAIN.ueD2DTx[3].nic.pdcpRrc  sentPacketToLowerLayer:vector(packetBytes)  ETV
attr interpolationmode  none
attr source  sentPacketToLowerLayer
vector 305  CAIN.ueD2DTx[3].nic.mac  receivedPacketFromUpperLayer:vector(packetBytes)  ETV
attr interpolationmode  none
attr source  receivedPacketFromUpperLayer
vector 315  CAIN.ueD2DTx[3].nic.mac  CainHopMessageSent:vector  ETV
attr interpolationmode  none
attr title  "# of Sent CAIN hop message, vector"
vector 308  CAIN.ueD2DTx[3].nic.mac  sentPacketToLowerLayer:vector(packetBytes)  ETV
attr interpolationmode  none
attr source  sentPacketToLowerLayer
vector 1381  CAIN.ueD2DTx[7].tcp  tcpRcvQueueBytes  ETV
vector 1368  CAIN.ueD2DTx[7].tcp  "advertised window"  ETV
vector 1367  CAIN.ueD2DTx[7].tcp  "receive window"  ETV
vector 1370  CAIN.ueD2DTx[7].tcp  "sent ack"  ETV
vector 429  CAIN.ueD2DTx[7].nic.pdcpRrc  receivedPacketFromUpperLayer:vector(packetBytes)  ETV
attr interpolationmode  none
attr source  receivedPacketFromUpperLayer
vector 432  CAIN.ueD2DTx[7].nic.pdcpRrc  sentPacketToLowerLayer:vector(packetBytes)  ETV
attr interpolationmode  none
attr source  sentPacketToLowerLayer
vector 433  CAIN.ueD2DTx[7].nic.mac  receivedPacketFromUpperLayer:vector(packetBytes)  ETV
attr interpolationmode  none
attr source  receivedPacketFromUpperLayer
vector 443  CAIN.ueD2DTx[7].nic.mac  CainHopMessageSent:vector  ETV
attr interpolationmode  none
attr title  "# of Sent CAIN hop message, vector"
vector 436  CAIN.ueD2DTx[7].nic.mac  sentPacketToLowerLayer:vector(packetBytes)  ETV
attr interpolationmode  none
attr source  sentPacketToLowerLayer
vector 1405  CAIN.ueD2DTx[18].tcp  tcpRcvQueueBytes  ETV
vector 1392  CAIN.ueD2DTx[18].tcp  "advertised window"  ETV
vector 1391  CAIN.ueD2DTx[18].tcp  "receive window"  ETV
vector 1394  CAIN.ueD2DTx[18].tcp  "sent ack"  ETV
vector 781  CAIN.ueD2DTx[18].nic.pdcpRrc  receivedPacketFromUpperLayer:vector(packetBytes)  ETV
attr interpolationmode  none
attr source  receivedPacketFromUpperLayer
vector 784  CAIN.ueD2DTx[18].nic.pdcpRrc  sentPacketToLowerLayer:vector(packetBytes)  ETV
attr interpolationmode  none
attr source  sentPacketToLowerLayer
vector 785  CAIN.ueD2DTx[18].nic.mac  receivedPacketFromUpperLayer:vector(packetBytes)  ETV
attr interpolationmode  none
attr source  receivedPacketFromUpperLayer
vector 795  CAIN.ueD2DTx[18].nic.mac  CainHopMessageSent:vector  ETV
attr interpolationmode  none
attr title  "# of Sent CAIN hop message, vector"
vector 788  CAIN.ueD2DTx[18].nic.mac  sentPacketToLowerLayer:vector(packetBytes)  ETV
attr interpolationmode  none
attr source  sentPacketToLowerLayer
vector 594  CAIN.ueD2DTx[12].nic.mac  receivedPacketFromLowerLayer:vector(packetBytes)  ETV
attr interpolationmode  none
attr source  receivedPacketFromLowerLayer
vector 596  CAIN.ueD2DTx[12].nic.mac  sentPacketToLowerLayer:vector(packetBytes)  ETV
attr interpolationmode  none
attr source  sentPacketToLowerLayer
vector 498  CAIN.ueD2DTx[9].nic.mac  receivedPacketFromLowerLayer:vector(packetBytes)  ETV
attr interpolationmode  none
attr source  receivedPacketFromLowerLayer
vector 500  CAIN.ueD2DTx[9].nic.mac  sentPacketToLowerLayer:vector(packetBytes)  ETV
attr interpolationmode  none
attr source  sentPacketToLowerLayer
vector 1429  CAIN.ueD2DTx[10].tcp  tcpRcvQueueBytes  ETV
vector 1416  CAIN.ueD2DTx[10].tcp  "advertised window"  ETV
vector 1415  CAIN.ueD2DTx[10].tcp  "receive window"  ETV
vector 1418  CAIN.ueD2DTx[10].tcp  "sent ack"  ETV
vector 525  CAIN.ueD2DTx[10].nic.pdcpRrc  receivedPacketFromUpperLayer:vector(packetBytes)  ETV
attr interpolationmode  none
attr source  receivedPacketFromUpperLayer
vector 528  CAIN.ueD2DTx[10].nic.pdcpRrc  sentPacketToLowerLayer:vector(packetBytes)  ETV
attr interpolationmode  none
attr source  sentPacketToLowerLayer
vector 529  CAIN.ueD2DTx[10].nic.mac  receivedPacketFromUpperLayer:vector(packetBytes)  ETV
attr interpolationmode  none
attr source  receivedPacketFromUpperLayer
vector 539  CAIN.ueD2DTx[10].nic.mac  CainHopMessageSent:vector  ETV
attr interpolationmode  none
attr title  "# of Sent CAIN hop message, vector"
vector 532  CAIN.ueD2DTx[10].nic.mac  sentPacketToLowerLayer:vector(packetBytes)  ETV
attr interpolationmode  none
attr source  sentPacketToLowerLayer
vector 505  CAIN.ueD2DTx[9].nic.mac  DropedHopMessage:vector  ETV
attr interpolationmode  none
attr title  "Droped Hop CAIN message due to RB not available, vector"
vector 1453  CAIN.ueD2DTx[8].tcp  tcpRcvQueueBytes  ETV
vector 1440  CAIN.ueD2DTx[8].tcp  "advertised window"  ETV
vector 1439  CAIN.ueD2DTx[8].tcp  "receive window"  ETV
vector 1442  CAIN.ueD2DTx[8].tcp  "sent ack"  ETV
vector 461  CAIN.ueD2DTx[8].nic.pdcpRrc  receivedPacketFromUpperLayer:vector(packetBytes)  ETV
attr interpolationmode  none
attr source  receivedPacketFromUpperLayer
vector 464  CAIN.ueD2DTx[8].nic.pdcpRrc  sentPacketToLowerLayer:vector(packetBytes)  ETV
attr interpolationmode  none
attr source  sentPacketToLowerLayer
vector 465  CAIN.ueD2DTx[8].nic.mac  receivedPacketFromUpperLayer:vector(packetBytes)  ETV
attr interpolationmode  none
attr source  receivedPacketFromUpperLayer
vector 1477  CAIN.ueD2DTx[9].tcp  tcpRcvQueueBytes  ETV
vector 1464  CAIN.ueD2DTx[9].tcp  "advertised window"  ETV
vector 1463  CAIN.ueD2DTx[9].tcp  "receive window"  ETV
vector 1466  CAIN.ueD2DTx[9].tcp  "sent ack"  ETV
vector 493  CAIN.ueD2DTx[9].nic.pdcpRrc  receivedPacketFromUpperLayer:vector(packetBytes)  ETV
attr interpolationmode  none
attr source  receivedPacketFromUpperLayer
vector 496  CAIN.ueD2DTx[9].nic.pdcpRrc  sentPacketToLowerLayer:vector(packetBytes)  ETV
attr interpolationmode  none
attr source  sentPacketToLowerLayer
vector 497  CAIN.ueD2DTx[9].nic.mac  receivedPacketFromUpperLayer:vector(packetBytes)  ETV
attr interpolationmode  none
attr source  receivedPacketFromUpperLayer
vector 1501  CAIN.ueD2DTx[14].tcp  tcpRcvQueueBytes  ETV
vector 1488  CAIN.ueD2DTx[14].tcp  "advertised window"  ETV
vector 1487  CAIN.ueD2DTx[14].tcp  "receive window"  ETV
vector 1490  CAIN.ueD2DTx[14].tcp  "sent ack"  ETV
vector 653  CAIN.ueD2DTx[14].nic.pdcpRrc  receivedPacketFromUpperLayer:vector(packetBytes)  ETV
attr interpolationmode  none
attr source  receivedPacketFromUpperLayer
vector 656  CAIN.ueD2DTx[14].nic.pdcpRrc  sentPacketToLowerLayer:vector(packetBytes)  ETV
attr interpolationmode  none
attr source  sentPacketToLowerLayer
vector 657  CAIN.ueD2DTx[14].nic.mac  receivedPacketFromUpperLayer:vector(packetBytes)  ETV
attr interpolationmode  none
attr source  receivedPacketFromUpperLayer
vector 667  CAIN.ueD2DTx[14].nic.mac  CainHopMessageSent:vector  ETV
attr interpolationmode  none
attr title  "# of Sent CAIN hop message, vector"
vector 660  CAIN.ueD2DTx[14].nic.mac  sentPacketToLowerLayer:vector(packetBytes)  ETV
attr interpolationmode  none
attr source  sentPacketToLowerLayer
vector 499  CAIN.ueD2DTx[9].nic.mac  sentPacketToUpperLayer:vector(packetBytes)  ETV
attr interpolationmode  none
attr source  sentPacketToUpperLayer
vector 115  CAIN.eNodeB.nic.phy  averageCqiUlvect:vector  ETV
attr source  averageCqiUlvect
attr title  "Average Cqi reported in UL, vector"
attr unit  cqi
vector 109  CAIN.eNodeB.nic.mac  ServedHopDevs:vector  ETV
attr interpolationmode  none
attr title  "# of devices served on hop forwarding, vector"
vector 97  CAIN.eNodeB.nic.mac  sentPacketToUpperLayer:vector(packetBytes)  ETV
attr interpolationmode  none
attr source  sentPacketToUpperLayer
vector 99  CAIN.eNodeB.nic.mac  measuredItbs:vector  ETV
attr source  measuredItbs
attr title  "TBS index, vector"
attr unit  ""
vector 92  CAIN.eNodeB.nic.pdcpRrc  receivedPacketFromLowerLayer:vector(packetBytes)  ETV
attr interpolationmode  none
attr source  receivedPacketFromLowerLayer
vector 93  CAIN.eNodeB.nic.pdcpRrc  sentPacketToUpperLayer:vector(packetBytes)  ETV
attr interpolationmode  none
attr source  sentPacketToUpperLayer
vector 86  CAIN.eNodeB.udp  sentPk:vector(packetBytes)  ETV
attr interpolationmode  none
attr source  sentPk
attr title  "packets sent, vector(packetBytes)"
vector 690  CAIN.ueD2DTx[15].nic.mac  receivedPacketFromLowerLayer:vector(packetBytes)  ETV
attr interpolationmode  none
attr source  receivedPacketFromLowerLayer
vector 692  CAIN.ueD2DTx[15].nic.mac  sentPacketToLowerLayer:vector(packetBytes)  ETV
attr interpolationmode  none
attr source  sentPacketToLowerLayer
vector 145  CAIN.eNodeB1.udp  rcvdPk:vector(packetBytes)  ETV
attr interpolationmode  none
attr source  rcvdPk
attr title  "packets received, vector(packetBytes)"
vector 146  CAIN.eNodeB1.udp  passedUpPk:vector(count)  ETV
attr interpolationmode  none
attr title  "packets passed up, vector(count)"
vector 474  CAIN.ueD2DTx[8].nic.mac  CainMessageSent:vector  ETV
attr interpolationmode  none
attr title  "# of Sent CAIN message, vector"
vector 697  CAIN.ueD2DTx[15].nic.mac  DropedHopMessage:vector  ETV
attr interpolationmode  none
attr title  "Droped Hop CAIN message due to RB not available, vector"
vector 100  CAIN.eNodeB.nic.mac  CainMessage:vector  ETV
attr interpolationmode  none
attr title  "eNB received CAIN message, vector"
vector 696  CAIN.ueD2DTx[15].nic.mac  DropedCainMessage:vector  ETV
attr interpolationmode  none
attr title  "Droped CAIN message due to RB not available, vector"
vector 149  CAIN.eNodeB1.nic.pdcpRrc  receivedPacketFromUpperLayer:vector(packetBytes)  ETV
attr interpolationmode  none
attr source  receivedPacketFromUpperLayer
vector 152  CAIN.eNodeB1.nic.pdcpRrc  sentPacketToLowerLayer:vector(packetBytes)  ETV
attr interpolationmode  none
attr source  sentPacketToLowerLayer
vector 1301  CAIN.eNodeB1.sctp  "SendQueue of Association 5"  ETV
vector 1065  CAIN.eNodeB1.sctp  "TSN Sent 5:10.0.5.1"  ETV
vector 1072  CAIN.eNodeB1.sctp  "Outstanding Bytes 5:10.0.5.1"  ETV
vector 870  CAIN.eNodeB1.sctp  "Outstanding Bytes 4:Total"  ETV
vector 1071  CAIN.eNodeB1.sctp  "Queued Sent Bytes 5:10.0.5.1"  ETV
vector 869  CAIN.eNodeB1.sctp  "Queued Sent Bytes 4:Total"  ETV
vector 153  CAIN.eNodeB1.nic.mac  receivedPacketFromUpperLayer:vector(packetBytes)  ETV
attr interpolationmode  none
attr source  receivedPacketFromUpperLayer
8	34996 8 0 0 0 0 1 0 0 0 0
9	35004 8 0 0 0 0 1 0 0 0 0
24	35012 9 0 0 0 0 1 0 0 0 0
25	35021 9 0 0 0 0 1 0 0 0 0
35	35030 9 0 0 0 0 1 0 0 0 0
36	35039 9 0 0 0 0 1 0 0 0 0
56	35048 9 0 0 0 0 1 0 0 0 0
57	35057 9 0 0 0 0 1 0 0 0 0
67	35066 9 0 0 0 0 1 0 0 0 0
68	35075 9 0 0 0 0 1 0 0 0 0
78	35084 9 0 0 0 0 1 0 0 0 0
79	35093 9 0 0 0 0 1 0 0 0 0
86	35102 17 2985 2985 0.051 0.051 1 52 52 52 2704
92	35119 17 2978 2978 0.051 0.051 1 45 45 45 2025
93	35136 17 2978 2978 0.051 0.051 1 44 44 44 1936
96	35153 1897 382 3374 0.002 0.056 121 0 0 0 0
97	37050 17 2972 2972 0.051 0.051 1 47 47 47 2209
98	37067 655 1112 3374 0.016 0.056 41 0 0 0 0
99	37722 16 2972 2972 0.051 0.051 1 9 9 9 81
100	37738 17 3303 3303 0.055 0.055 1 1 1 1 1
101	37755 531 1112 3374 0.016 0.056 30 1 30 465 9455
106	38286 778 1112 3374 0.016 0.056 41 285 560 20726 10841728
109	39064 169 2791 3139 0.048 0.053 10 8 9 86 742
111	39233 782 1112 3374 0.016 0.056 44 1 44 990 29370
112	40015 835 1112 3374 0.016 0.056 44 114 285 11068 2954672
113	40850 747 1112 3374 0.016 0.056 44 0 0 0 0
115	41597 51 2780 3125 0.048 0.053 3 6 8 22 164
120	41648 10 0 0 0 0 1 0 0 0 0
121	41658 10 0 0 0 0 1 0 0 0 0
128	41668 334 139 2987 0 0.051 15 36 292 1200 160288
130	42002 356 139 2987 0 0.051 15 0 8.8e-08 3.088e-07 1.946112e-14
131	42358 280 0 258 0 0.0000007124 13 0 2 10 14
132	42638 671 0 3034 0 0.0510000632 31 0 1 15 15
133	43309 336 141 2988 0 0.051 15 43 299 1305 177823
134	43645 311 146 669 0.0000001228 0.0070001912 13 43 171 923 81725
137	43956 336 141 2988 0 0.051 15 36 292 1200 160288
138	44292 311 146 669 0.0000001228 0.0070001912 13 36 164 832 69440
145	44603 25 3037 3037 0.0510001132 0.0510001132 1 52 52 52 2704
146	44628 24 3037 3037 0.0510001132 0.0510001132 1 1 1 1 1
149	44652 18 3391 3391 0.057 0.057 1 44 44 44 1936
152	44670 18 3391 3391 0.057 0.057 1 45 45 45 2025
153	44688 18 3436 3436 0.057 0.057 1 45 45 45 2025
178	44706 10 0 0 0 0 1 0 0 0 0
179	44716 10 0 0 0 0 1 0 0 0 0
186	44726 316 140 3437 0 0.057 14 36 164 884 72144
188	45042 340 140 3437 0 0.057 14 0 8.8e-08 3.088e-07 1.946112e-14
189	45382 280 0 257 0 0.0000007124 13 0 2 10 14
190	45662 608 0 3438 0 0.057 28 0 1 14 14
191	46270 318 142 3438 0 0.057 14 43 171 982 85206
192	46588 361 145 3035 0.0000001228 0.0510001132 15 43 299 1305 177823
195	46949 318 142 3438 0 0.057 14 36 164 884 72144
196	47267 361 145 3035 0.0000001228 0.0510001132 15 36 292 1200 160288
199	47628 322 664 717 0.0070000972 0.0070004804 14 2 2 28 56
210	47950 357 1054 2900 0.014 0.049 21 0 0 0 0
212	48307 357 1054 2900 0.014 0.049 21 0 0 0 0
231	48664 27 0 3376 0 0.057 2 1 2 3 5
263	48691 27 0 3377 0 0.057 2 1 2 3 5
295	48718 27 0 3378 0 0.057 2 1 2 3 5
301	48745 27 1630 1630 0.027262016546 0.027262016546 1 44 44 44 1936
304	48772 27 1630 1630 0.027262016546 0.027262016546 1 45 45 45 2025
305	48799 27 1633 1633 0.027262016546 0.027262016546 1 45 45 45 2025
308	48826 102 1639 3098 0.028 0.053 6 0 0 0 0
315	48928 102 1639 3098 0.028 0.053 6 1 6 21 91
327	49030 27 0 3379 0 0.057 2 1 2 3 5
359	49057 10 0 0 0 0 1 1 1 1 1
391	49067 27 0 3380 0 0.057 2 1 2 3 5
423	49094 27 0 3381 0 0.057 2 1 2 3 5
429	49121 27 1892 1892 0.032193433337 0.032193433337 1 44 44 44 1936
432	49148 27 1892 1892 0.032193433337 0.032193433337 1 45 45 45 2025
433	49175 27 1895 1895 0.032193433337 0.032193433337 1 45 45 45 2025
436	49202 85 1906 3103 0.033 0.053 5 0 0 0 0
443	49287 85 1906 3103 0.033 0.053 5 1 5 15 55
455	49372 27 0 3382 0 0.057 2 1 2 3 5
461	49399 27 2399 2399 0.042654495104 0.042654495104 1 44 44 44 1936
464	49426 27 2399 2399 0.042654495104 0.042654495104 1 45 45 45 2025
465	49453 27 2402 2402 0.042654495104 0.042654495104 1 45 45 45 2025
466	49480 922 1083 3466 0.015 0.057 55 0 0 0 0
468	50402 702 1083 3294 0.015 0.055 42 0 0 0 0
473	51104 207 1141 2394 0.017 0.042 12 1 12 78 650
474	51311 17 3105 3105 0.053 0.053 1 1 1 1 1
487	51328 27 0 3383 0 0.057 2 1 2 3 5
493	51355 27 2407 2407 0.042742808261 0.042742808261 1 44 44 44 1936
496	51382 27 2407 2407 0.042742808261 0.042742808261 1 45 45 45 2025
497	51409 45 2410 2692 0.042742808261 0.047 2 45 47 92 4234
498	51454 170 2151 3074 0.037 0.052 10 0 0 0 0
499	51624 17 2688 2688 0.047 0.047 1 0 0 0 0
500	51641 102 2151 2903 0.037 0.049 6 0 0 0 0
505	51743 34 2257 2580 0.039 0.044 2 1 2 3 5
519	51777 10 0 0 0 0 1 1 1 1 1
525	51787 27 2163 2163 0.037255783586 0.037255783586 1 44 44 44 1936
528	51814 27 2163 2163 0.037255783586 0.037255783586 1 45 45 45 2025
529	51841 27 2166 2166 0.037255783586 0.037255783586 1 45 45 45 2025
532	51868 68 2181 3108 0.038 0.053 4 0 0 0 0
539	51936 68 2181 3108 0.038 0.053 4 1 4 10 30
551	52004 27 0 3384 0 0.057 2 1 2 3 5
583	52031 27 0 3385 0 0.057 2 1 2 3 5
594	52058 68 2051 3357 0.036 0.056 4 0 0 0 0
596	52126 68 2051 3357 0.036 0.056 4 0 0 0 0
615	52194 10 0 0 0 0 1 1 1 1 1
647	52204 27 0 3386 0 0.057 2 1 2 3 5
653	52231 27 2512 2512 0.043019576671 0.043019576671 1 44 44 44 1936
656	52258 27 2512 2512 0.043019576671 0.043019576671 1 45 45 45 2025
657	52285 27 2515 2515 0.043019576671 0.043019576671 1 45 45 45 2025
660	52312 51 2532 3176 0.044 0.054 3 0 0 0 0
667	52363 51 2532 3176 0.044 0.054 3 1 3 6 14
679	52414 27 0 3387 0 0.057 2 1 2 3 5
690	52441 187 3020 3369 0.051 0.056 11 0 0 0 0
692	52628 136 3020 3360 0.051 0.056 8 0 0 0 0
696	52764 17 3369 3369 0.056 0.056 1 1 1 1 1
697	52781 34 3131 3203 0.053 0.054 2 1 2 3 5
711	52815 10 0 0 0 0 1 1 1 1 1
717	52825 26 916 916 0.012314120021 0.012314120021 1 44 44 44 1936
720	52851 26 916 916 0.012314120021 0.012314120021 1 45 45 45 2025
721	52877 26 919 919 0.012314120021 0.012314120021 1 45 45 45 2025
724	52903 153 1000 3115 0.013 0.053 9 0 0 0 0
731	53056 153 1000 3115 0.013 0.053 9 1 9 45 285
743	53209 27 0 3388 0 0.057 2 1 2 3 5
775	53236 27 0 3389 0 0.057 2 1 2 3 5
781	53263 27 1964 1964 0.034967919982 0.034967919982 1 44 44 44 1936
784	53290 27 1964 1964 0.034967919982 0.034967919982 1 45 45 45 2025
785	53317 27 1967 1967 0.034967919982 0.034967919982 1 45 45 45 2025
788	53344 83 1988 3286 0.035 0.055 5 0 0 0 0
795	53427 83 1988 3286 0.035 0.055 5 1 5 15 55
807	53510 10 0 0 0 0 1 1 1 1 1
839	53520 10 0 0 0 0 1 1 1 1 1
847	53530 347 613 671 0.007 0.0070001912 15 0 26 184 3280
848	53877 347 613 671 0.007 0.0070001912 15 0 26 184 3280
849	54224 23 671 671 0.0070001912 0.0070001912 1 0 0 0 0
850	54247 23 671 671 0.0070001912 0.0070001912 1 0 0 0 0
859	54270 27 671 671 0.0070001912 0.0070001912 1 65533 65533 65533 4294574089
860	54297 54 150 671 0.0000001228 0.0070001912 2 65533 65535 131068 8589410314
863	54351 12 123 123 0 0 1 0 0 0 0
869	54363 17 3420 3420 0.057 0.057 1 2 2 2 4
870	54380 17 3420 3420 0.057 0.057 1 2 2 2 4
882	54397 27 149 149 0.0000001228 0.0000001228 1 65535 65535 65535 4294836225
885	54424 12 128 128 0 0 1 0 0 0 0
904	54436 27 163 163 0.0000003096 0.0000003096 1 65535 65535 65535 4294836225
907	54463 12 131 131 0 0 1 0 0 0 0
908	54475 46 235 302 0.0000006304 0.0000008564 2 1 3 4 10
909	54521 30 302 302 0.0000008564 0.0000008564 1 2.26e-07 2.26e-07 2.26e-07 5.1076e-14
910	54551 27 235 235 0.0000006304 0.0000006304 1 65535 65535 65535 4294836225
911	54578 26 235 235 0.0000006304 0.0000006304 1 8940 8940 8940 79923600
912	54604 28 235 235 0.0000006304 0.0000006304 1 0.3725 0.3725 0.3725 0.13875625
916	54632 44 207 221 0.000000552 0.000000596 2 1 2 3 5
917	54676 44 207 221 0.000000552 0.000000596 2 1 2 3 5
918	54720 46 302 308 0.0000008564 0.0000009004 2 1 2 3 5
927	54766 12 131 131 0 0 1 0 0 0 0
935	54778 27 659 659 0.0070000972 0.0070000972 1 65533 65533 65533 4294574089
939	54805 346 659 704 0.0070000972 0.0070004804 15 0 26 30 684
944	55151 23 659 659 0.0070000972 0.0070000972 1 0 0 0 0
945	55174 23 659 659 0.0070000972 0.0070000972 1 0 0 0 0
946	55197 23 659 659 0.0070000972 0.0070000972 1 0 0 0 0
947	55220 23 659 659 0.0070000972 0.0070000972 1 0 0 0 0
948	55243 23 659 659 0.0070000972 0.0070000972 1 0 0 0 0
949	55266 23 659 659 0.0070000972 0.0070000972 1 0 0 0 0
950	55289 23 659 659 0.0070000972 0.0070000972 1 0 0 0 0
951	55312 24 659 659 0.0070000972 0.0070000972 1 16 16 16 256
953	55336 27 164 164 0.0000003096 0.0000003096 1 65535 65535 65535 4294836225
955	55363 433 662 692 0.0070000972 0.0070004804 14 9.72e-08 2.892e-07 3.8568e-06 1.09672416e-12
956	55796 12 132 132 0 0 1 0 0 0 0
957	55808 46 236 301 0.0000006304 0.0000008564 2 1 3 4 10
958	55854 30 301 301 0.0000008564 0.0000008564 1 2.26e-07 2.26e-07 2.26e-07 5.1076e-14
959	55884 27 236 236 0.0000006304 0.0000006304 1 65535 65535 65535 4294836225
960	55911 26 236 236 0.0000006304 0.0000006304 1 8940 8940 8940 79923600
961	55937 28 236 236 0.0000006304 0.0000006304 1 0.3725 0.3725 0.3725 0.13875625
963	55965 364 659 678 0.0070000972 0.0070004804 14 2000 2013 28091 56364819
965	56329 44 208 222 0.000000552 0.000000596 2 1 2 3 5
966	56373 44 208 222 0.000000552 0.000000596 2 1 2 3 5
967	56417 46 301 307 0.0000008564 0.0000009004 2 1 2 3 5
976	56463 12 132 132 0 0 1 0 0 0 0
1005	56475 24 149 149 0.0000001228 0.0000001228 1 0 0 0 0
1006	56499 23 177 177 0.000000458 0.000000458 1 3 3 3 9
1008	56522 27 177 177 0.000000458 0.000000458 1 65535 65535 65535 4294836225
1009	56549 26 177 177 0.000000458 0.000000458 1 8940 8940 8940 79923600
1010	56575 28 177 177 0.000000458 0.000000458 1 0.3725 0.3725 0.3725 0.13875625
1013	56603 23 177 177 0.000000458 0.000000458 1 1 1 1 1
1025	56626 24 149 149 0.0000001228 0.0000001228 1 0 0 0 0
1033	56650 23 177 177 0.000000458 0.000000458 1 3 3 3 9
1035	56673 27 177 177 0.000000458 0.000000458 1 65535 65535 65535 4294836225
1036	56700 26 177 177 0.000000458 0.000000458 1 8940 8940 8940 79923600
1037	56726 28 177 177 0.000000458 0.000000458 1 0.3725 0.3725 0.3725 0.13875625
1040	56754 23 177 177 0.000000458 0.000000458 1 1 1 1 1
1052	56777 24 149 149 0.0000001228 0.0000001228 1 0 0 0 0
1060	56801 47 177 256 0.000000458 0.0000006744 2 1 3 4 10
1061	56848 32 256 256 0.0000006744 0.0000006744 1 2.164e-07 2.164e-07 2.164e-07 4.682896e-14
1062	56880 27 177 177 0.000000458 0.000000458 1 65535 65535 65535 4294836225
1063	56907 26 177 177 0.000000458 0.000000458 1 8940 8940 8940 79923600
1064	56933 28 177 177 0.000000458 0.000000458 1 0.3725 0.3725 0.3725 0.13875625
1065	56961 21 3420 3420 0.057 0.057 1 2000 2000 2000 4000000
1068	56982 48 274 288 0.0000007624 0.0000008064 2 1 2 3 5
1069	57030 48 274 288 0.0000007624 0.0000008064 2 1 2 3 5
1070	57078 48 256 266 0.0000006744 0.0000007184 2 1 2 3 5
1071	57126 18 3420 3420 0.057 0.057 1 2 2 2 4
1072	57144 18 3420 3420 0.057 0.057 1 2 2 2 4
1079	57162 24 149 149 0.0000001228 0.0000001228 1 0 0 0 0
1108	57186 24 150 150 0.0000001228 0.0000001228 1 0 0 0 0
1109	57210 23 178 178 0.000000458 0.000000458 1 3 3 3 9
1111	57233 27 178 178 0.000000458 0.000000458 1 65535 65535 65535 4294836225
1112	57260 26 178 178 0.000000458 0.000000458 1 8940 8940 8940 79923600
1113	57286 28 178 178 0.000000458 0.000000458 1 0.3725 0.3725 0.3725 0.13875625
1116	57314 23 178 178 0.000000458 0.000000458 1 1 1 1 1
1124	57337 24 671 671 0.0070001912 0.0070001912 1 0 0 0 0
1125	57361 24 671 671 0.0070001912 0.0070001912 1 0 0 0 0
1126	57385 24 671 671 0.0070001912 0.0070001912 1 0 0 0 0
1128	57409 24 150 150 0.0000001228 0.0000001228 1 0 0 0 0
1136	57433 23 178 178 0.000000458 0.000000458 1 3 3 3 9
1138	57456 27 178 178 0.000000458 0.000000458 1 65535 65535 65535 4294836225
1139	57483 26 178 178 0.000000458 0.000000458 1 8940 8940 8940 79923600
1140	57509 28 178 178 0.000000458 0.000000458 1 0.3725 0.3725 0.3725 0.13875625
1143	57537 23 178 178 0.000000458 0.000000458 1 1 1 1 1
1151	57560 24 671 671 0.0070001912 0.0070001912 1 0 0 0 0
1152	57584 24 671 671 0.0070001912 0.0070001912 1 0 0 0 0
1153	57608 24 671 671 0.0070001912 0.0070001912 1 0 0 0 0
1155	57632 24 150 150 0.0000001228 0.0000001228 1 0 0 0 0
1163	57656 71 178 671 0.000000458 0.0070001912 3 1 3 5 11
1164	57727 64 255 671 0.0000006744 0.0070001912 2 1.912e-07 2.164e-07 4.076e-07 8.33864e-14
1165	57791 27 178 178 0.000000458 0.000000458 1 65535 65535 65535 4294836225
1166	57818 26 178 178 0.000000458 0.000000458 1 8940 8940 8940 79923600
1167	57844 28 178 178 0.000000458 0.000000458 1 0.3725 0.3725 0.3725 0.13875625
1168	57872 371 613 671 0.007 0.0070001912 14 2000 2013 28091 56364819
1171	58243 48 273 287 0.0000007624 0.0000008064 2 1 2 3 5
1172	58291 48 273 287 0.0000007624 0.0000008064 2 1 2 3 5
1173	58339 48 255 265 0.0000006744 0.0000007184 2 1 2 3 5
1174	58387 362 613 671 0.007 0.0070001912 15 0 26 184 3280
1175	58749 362 613 671 0.007 0.0070001912 15 0 26 184 3280
1178	59111 24 671 671 0.0070001912 0.0070001912 1 0 0 0 0
1179	59135 24 671 671 0.0070001912 0.0070001912 1 0 0 0 0
1180	59159 24 671 671 0.0070001912 0.0070001912 1 0 0 0 0
1181	59183 24 671 671 0.0070001912 0.0070001912 1 0 0 0 0
1182	59207 24 150 150 0.0000001228 0.0000001228 1 0 0 0 0
1185	59231 27 671 671 0.0070001912 0.0070001912 1 2000 2000 2000 4000000
1187	59258 24 671 671 0.0070001912 0.0070001912 1 0 0 0 0
1188	59282 24 671 671 0.0070001912 0.0070001912 1 0 0 0 0
1190	59306 24 235 235 0.0000006304 0.0000006304 1 3 3 3 9
1192	59330 28 235 235 0.0000006304 0.0000006304 1 65535 65535 65535 4294836225
1193	59358 27 235 235 0.0000006304 0.0000006304 1 8940 8940 8940 79923600
1194	59385 29 235 235 0.0000006304 0.0000006304 1 0.3725 0.3725 0.3725 0.13875625
1197	59414 24 235 235 0.0000006304 0.0000006304 1 1 1 1 1
1209	59438 24 163 163 0.0000003096 0.0000003096 1 0 0 0 0
1217	59462 24 235 235 0.0000006304 0.0000006304 1 3 3 3 9
1219	59486 28 235 235 0.0000006304 0.0000006304 1 65535 65535 65535 4294836225
1220	59514 27 235 235 0.0000006304 0.0000006304 1 8940 8940 8940 79923600
1221	59541 29 235 235 0.0000006304 0.0000006304 1 0.3725 0.3725 0.3725 0.13875625
1224	59570 24 235 235 0.0000006304 0.0000006304 1 1 1 1 1
1236	59594 24 163 163 0.0000003096 0.0000003096 1 0 0 0 0
1244	59618 24 236 236 0.0000006304 0.0000006304 1 3 3 3 9
1246	59642 28 236 236 0.0000006304 0.0000006304 1 65535 65535 65535 4294836225
1247	59670 27 236 236 0.0000006304 0.0000006304 1 8940 8940 8940 79923600
1248	59697 29 236 236 0.0000006304 0.0000006304 1 0.3725 0.3725 0.3725 0.13875625
1251	59726 24 236 236 0.0000006304 0.0000006304 1 1 1 1 1
1263	59750 24 164 164 0.0000003096 0.0000003096 1 0 0 0 0
1271	59774 24 236 236 0.0000006304 0.0000006304 1 3 3 3 9
1273	59798 28 236 236 0.0000006304 0.0000006304 1 65535 65535 65535 4294836225
1274	59826 27 236 236 0.0000006304 0.0000006304 1 8940 8940 8940 79923600
1275	59853 29 236 236 0.0000006304 0.0000006304 1 0.3725 0.3725 0.3725 0.13875625
1278	59882 24 236 236 0.0000006304 0.0000006304 1 1 1 1 1
1290	59906 24 164 164 0.0000003096 0.0000003096 1 0 0 0 0
1301	59930 274 3420 3434 0.057 0.057 15 0 13 92 820
1304	60204 24 671 671 0.0070001912 0.0070001912 1 0 0 0 0
1305	60228 2692 613 3265 0.007 0.055 140 0 112 6498 476070
1319	62920 29 913 913 0.012314120021 0.012314120021 1 7504 7504 7504 56310016
1320	62949 29 913 913 0.012314120021 0.012314120021 1 7504 7504 7504 56310016
1322	62978 26 913 913 0.012314120021 0.012314120021 1 0 0 0 0
1333	63004 26 913 913 0.012314120021 0.012314120021 1 0 0 0 0
1343	63030 30 1627 1627 0.027262016546 0.027262016546 1 7504 7504 7504 56310016
1344	63060 30 1627 1627 0.027262016546 0.027262016546 1 7504 7504 7504 56310016
1346	63090 27 1627 1627 0.027262016546 0.027262016546 1 0 0 0 0
1357	63117 27 1627 1627 0.027262016546 0.027262016546 1 0 0 0 0
1367	63144 30 1889 1889 0.032193433337 0.032193433337 1 7504 7504 7504 56310016
1368	63174 30 1889 1889 0.032193433337 0.032193433337 1 7504 7504 7504 56310016
1370	63204 27 1889 1889 0.032193433337 0.032193433337 1 0 0 0 0
1381	63231 27 1889 1889 0.032193433337 0.032193433337 1 0 0 0 0
1391	63258 30 1961 1961 0.034967919982 0.034967919982 1 7504 7504 7504 56310016
1392	63288 30 1961 1961 0.034967919982 0.034967919982 1 7504 7504 7504 56310016
1394	63318 27 1961 1961 0.034967919982 0.034967919982 1 0 0 0 0
1405	63345 27 1961 1961 0.034967919982 0.034967919982 1 0 0 0 0
1415	63372 30 2160 2160 0.037255783586 0.037255783586 1 7504 7504 7504 56310016
1416	63402 30 2160 2160 0.037255783586 0.037255783586 1 7504 7504 7504 56310016
1418	63432 27 2160 2160 0.037255783586 0.037255783586 1 0 0 0 0
1429	63459 27 2160 2160 0.037255783586 0.037255783586 1 0 0 0 0
1439	63486 30 2396 2396 0.042654495104 0.042654495104 1 7504 7504 7504 56310016
1440	63516 30 2396 2396 0.042654495104 0.042654495104 1 7504 7504 7504 56310016
1442	63546 27 2396 2396 0.042654495104 0.042654495104 1 0 0 0 0
1453	63573 27 2396 2396 0.042654495104 0.042654495104 1 0 0 0 0
1463	63600 30 2404 2404 0.042742808261 0.042742808261 1 7504 7504 7504 56310016
1464	63630 30 2404 2404 0.042742808261 0.042742808261 1 7504 7504 7504 56310016
1466	63660 27 2404 2404 0.042742808261 0.042742808261 1 0 0 0 0
1477	63687 27 2404 2404 0.042742808261 0.042742808261 1 0 0 0 0
1487	63714 30 2509 2509 0.043019576671 0.043019576671 1 7504 7504 7504 56310016
1488	63744 30 2509 2509 0.043019576671 0.043019576671 1 7504 7504 7504 56310016
1490	63774 27 2509 2509 0.043019576671 0.043019576671 1 0 0 0 0
1501	63801 27 2509 2509 0.043019576671 0.043019576671 1 0 0 0 0
