version 2
run CAIN-75-20200508-16:29:19-12746
attr configname CAIN
attr datetime 20200508-16:29:19
attr dist 200
attr experiment CAIN
attr extAllocType "\"FULL_ALLOC\""
attr inifile omnetpp.ini
attr iterationvars "$numUe=20, $pwr=-50, $dist=200, $mob=\"./movements/RWPRPGM-0.5.movements\", $extAllocType=\"FULL_ALLOC\""
attr iterationvars2 "$numUe=20, $pwr=-50, $dist=200, $mob=\"./movements/RWPRPGM-0.5.movements\", $extAllocType=\"FULL_ALLOC\", $repetition=0"
attr measurement "$numUe=20, $pwr=-50, $dist=200, $mob=\"./movements/RWPRPGM-0.5.movements\", $extAllocType=\"FULL_ALLOC\""
attr mob "\"./movements/RWPRPGM-0.5.movements\""
attr network lte.simulations.networks.CAIN
attr numUe 20
attr processid 12746
attr pwr -50
attr repetition 0
attr replication #0
attr resultdir results
attr runnumber 75
attr seedset 0
param **.**.amcMode "\"AUTO\""
param **.amcMode "\"D2D\""
param **.cainNetwork true
param **.channelControl.alpha 1.0
param **.channelControl.carrierFrequency 2100e+6Hz
param **.channelControl.pMax 10W
param **.d2dCqi 7
param **.deployer.numRbDl 50
param **.deployer.numRbUl 50
param **.distThresh ${dist=200}
param **.fbDelay 1
param **.feedbackComputation "xmldoc(\"config_channel.xml\")"
param **.mobility.constraintAreaMaxX 1000m
param **.mobility.constraintAreaMaxY 1000m
param **.mobility.constraintAreaMaxZ 0m
param **.mobility.constraintAreaMinX 0m
param **.mobility.constraintAreaMinY 0m
param **.mobility.constraintAreaMinZ 0m
param **.nic.phy.channelModel "xmldoc(\"config_channel.xml\")"
param **.numBands 50
param **.pwrThresh "${pwr= -50}"
param **.qtdThresh 3
param **.rbAllocationType "\"localized\""
param **.routingRecorder.enabled false
param **.tcpApp[*].tClose -1s
param **.ueD2DTx[*].mobility.changeAngleBy "normal(0deg, 30deg)"
param **.ueD2DTx[*].mobility.changeInterval "normal(5s, 0.1s)"
param **.ueD2DTx[*].mobility.nodeId -1
param **.ueD2DTx[*].mobility.speed "normal(2mps, 0.01mps)"
param **.ueD2DTx[*].mobility.traceFile "${mob=\"./movements/RWP-0.0.movements\",\"./movements/RWP-0.5.movements\",\"./movements/RPGM-0.0.movements\",\"./movements/RPGM-0.5.movements\",\"./movements/RWPRPGM-0.0.movements\",\"./movements/RWPRPGM-0.5.movements\"}"
param **.ueD2DTx[*].mobilityType "\"BonnMotionMobility\""
param **.usePreconfiguredTxParams false
param *.eNodeB*.numX2Apps 1
param *.eNodeB*.x2App[*].server.localPort "5000 + ancestorIndex(1)"
param *.eNodeB.d2dCapable false
param *.eNodeB.mobility.initFromDisplayString false
param *.eNodeB.mobility.initialX 300m
param *.eNodeB.mobility.initialY 300m
param *.eNodeB.nic.phy.enableD2DCqiReporting true
param *.eNodeB.txPower 19952.62315mw
param *.eNodeB.x2App[0].client.connectAddress "\"eNodeB1%x2ppp0\""
param *.eNodeB1.d2dCapable true
param *.eNodeB1.mobility.initFromDisplayString false
param *.eNodeB1.mobility.initialX 700m
param *.eNodeB1.mobility.initialY 300m
param *.eNodeB1.nic.phy.enableD2DCqiReporting true
param *.eNodeB1.txPower 19952.62315mw
param *.eNodeB1.x2App[0].client.connectAddress "\"eNodeB%x2ppp0\""
param *.extCell[*].bandAllocationType "${extAllocType=\"FULL_ALLOC\",\"RANDOM_ALLOC\",\"CONTIGUOUS_ALLOC\"}"
param *.extCell[*].bandUtilization 0.5
param *.extCell[*].txDirection "\"ANISOTROPIC\""
param *.extCell[*].txPower 20
param *.extCell[0].position_x 100m
param *.extCell[0].position_y 600m
param *.extCell[0].txAngle 315
param *.extCell[1].position_x 600m
param *.extCell[1].position_y 600m
param *.extCell[1].txAngle 225
param *.numExtCells 2
param *.numUeCell 0
param *.numUeD2DRx 1
param *.numUeD2DTx 1
param *.ue*.macCellId 1
param *.ue*.masterId 1
param *.ue*.mobility.initFromDisplayString false
param *.ue*[0].macCellId 1
param *.ue*[0].masterId 1
param *.ue*[0].mobility.initFromDisplayString false
param *.ueD2D*.numTcpApps 1
param *.ueD2D*[*].d2dCapable true
param *.ueD2D*[0].d2dCapable false
param *.ueD2D*[0].numTcpApps 1
param *.ueD2DRx[0].mobility.initialX 310m
param *.ueD2DRx[0].mobility.initialY 350m
param *.ueD2DRx[0].tcpApp[*].localPort 1000
param *.ueD2DRx[0].tcpApp[*].typename "\"TCPSinkApp\""
param *.ueD2DTx*.nic.d2dPeerAddresses "\"ueD2DTx[1]\""
param *.ueD2DTx*.tcpApp[*].connectAddress "\"ueD2DTx[0]\""
param *.ueD2DTx*.tcpApp[*].localAddress "\"ueD2DTx\""
param *.ueD2DTx*.tcpApp[*].localPort 1000
param *.ueD2DTx*.tcpApp[*].sendBytes 1GiB
param *.ueD2DTx*.tcpApp[*].typename "\"TCPSessionApp\""
param *.ueD2DTx*.tcpApp[0].active true
param *.ueD2DTx*.tcpApp[0].connectPort 1000
param *.ueD2DTx*.tcpApp[0].tOpen uniform(0.010s,0.1s)
param *.ueD2DTx*.tcpApp[0].tSend uniform(0.15s,0.5s)
param *.ueD2DTx[0].mobility.initialX 290m
param *.ueD2DTx[0].mobility.initialY 350m
param *.ueD2DTx[0].tcpApp[*].localPort 1000
param *.ueD2DTx[0].tcpApp[*].sendBytes 1GiB
param *.ueD2DTx[0].tcpApp[*].typename "\"TCPSessionApp\""
param *.ueD2DTx[0].tcpApp[0].active true
param *.ueD2DTx[0].tcpApp[0].connectAddress "\"ueD2DRx[0]\""
param *.ueD2DTx[0].tcpApp[0].connectPort 1000
param *.ueD2DTx[0].tcpApp[0].localAddress "\"ueD2DTx[0]\""
param *.ueD2DTx[0].tcpApp[0].tOpen uniform(0.010s,0.1s)
param *.ueD2DTx[0].tcpApp[0].tSend uniform(0.15s,0.5s)
param *.ueD2DTx[1].mobility.initialX 690m
param *.ueD2DTx[1].mobility.initialY 250m

vector 8  CAIN.server.ppp[0].queue  queueLength:vector  ETV
attr interpolationmode  sample-hold
attr title  "queue length, vector"
vector 9  CAIN.server.ppp[0].ppp  txState:vector  ETV
attr interpolationmode  sample-hold
attr title  "tx state, vector"
vector 24  CAIN.router.ppp[0].queue  queueLength:vector  ETV
attr interpolationmode  sample-hold
attr title  "queue length, vector"
vector 25  CAIN.router.ppp[0].ppp  txState:vector  ETV
attr interpolationmode  sample-hold
attr title  "tx state, vector"
vector 35  CAIN.router.ppp[1].queue  queueLength:vector  ETV
attr interpolationmode  sample-hold
attr title  "queue length, vector"
vector 36  CAIN.router.ppp[1].ppp  txState:vector  ETV
attr interpolationmode  sample-hold
attr title  "tx state, vector"
vector 56  CAIN.pgw.ppp[0].queue  queueLength:vector  ETV
attr interpolationmode  sample-hold
attr title  "queue length, vector"
vector 57  CAIN.pgw.ppp[0].ppp  txState:vector  ETV
attr interpolationmode  sample-hold
attr title  "tx state, vector"
vector 67  CAIN.pgw.ppp[1].queue  queueLength:vector  ETV
attr interpolationmode  sample-hold
attr title  "queue length, vector"
vector 68  CAIN.pgw.ppp[1].ppp  txState:vector  ETV
attr interpolationmode  sample-hold
attr title  "tx state, vector"
vector 78  CAIN.pgw.pppInterface.queue  queueLength:vector  ETV
attr interpolationmode  sample-hold
attr title  "queue length, vector"
vector 79  CAIN.pgw.pppInterface.ppp  txState:vector  ETV
attr interpolationmode  sample-hold
attr title  "tx state, vector"
vector 120  CAIN.eNodeB.pppIf.queue  queueLength:vector  ETV
attr interpolationmode  sample-hold
attr title  "queue length, vector"
vector 121  CAIN.eNodeB.pppIf.ppp  txState:vector  ETV
attr interpolationmode  sample-hold
attr title  "tx state, vector"
vector 131  CAIN.eNodeB.x2ppp[0].queue  queueLength:vector  ETV
attr interpolationmode  sample-hold
attr title  "queue length, vector"
vector 132  CAIN.eNodeB.x2ppp[0].ppp  txState:vector  ETV
attr interpolationmode  sample-hold
attr title  "tx state, vector"
vector 178  CAIN.eNodeB1.pppIf.queue  queueLength:vector  ETV
attr interpolationmode  sample-hold
attr title  "queue length, vector"
vector 179  CAIN.eNodeB1.pppIf.ppp  txState:vector  ETV
attr interpolationmode  sample-hold
attr title  "tx state, vector"
vector 189  CAIN.eNodeB1.x2ppp[0].queue  queueLength:vector  ETV
attr interpolationmode  sample-hold
attr title  "queue length, vector"
vector 190  CAIN.eNodeB1.x2ppp[0].ppp  txState:vector  ETV
attr interpolationmode  sample-hold
attr title  "tx state, vector"
vector 231  CAIN.ueD2DTx[0].nic.phy  servingCell:vector  ETV
attr source  servingCell
attr title  "ID of the serving eNodeB for the UE, vector"
attr unit  ""
vector 263  CAIN.ueD2DTx[1].nic.phy  servingCell:vector  ETV
attr source  servingCell
attr title  "ID of the serving eNodeB for the UE, vector"
attr unit  ""
vector 295  CAIN.ueD2DTx[2].nic.phy  servingCell:vector  ETV
attr source  servingCell
attr title  "ID of the serving eNodeB for the UE, vector"
attr unit  ""
vector 327  CAIN.ueD2DTx[3].nic.phy  servingCell:vector  ETV
attr source  servingCell
attr title  "ID of the serving eNodeB for the UE, vector"
attr unit  ""
vector 359  CAIN.ueD2DTx[4].nic.phy  servingCell:vector  ETV
attr source  servingCell
attr title  "ID of the serving eNodeB for the UE, vector"
attr unit  ""
vector 391  CAIN.ueD2DTx[5].nic.phy  servingCell:vector  ETV
attr source  servingCell
attr title  "ID of the serving eNodeB for the UE, vector"
attr unit  ""
vector 423  CAIN.ueD2DTx[6].nic.phy  servingCell:vector  ETV
attr source  servingCell
attr title  "ID of the serving eNodeB for the UE, vector"
attr unit  ""
vector 455  CAIN.ueD2DTx[7].nic.phy  servingCell:vector  ETV
attr source  servingCell
attr title  "ID of the serving eNodeB for the UE, vector"
attr unit  ""
vector 487  CAIN.ueD2DTx[8].nic.phy  servingCell:vector  ETV
attr source  servingCell
attr title  "ID of the serving eNodeB for the UE, vector"
attr unit  ""
vector 519  CAIN.ueD2DTx[9].nic.phy  servingCell:vector  ETV
attr source  servingCell
attr title  "ID of the serving eNodeB for the UE, vector"
attr unit  ""
vector 551  CAIN.ueD2DTx[10].nic.phy  servingCell:vector  ETV
attr source  servingCell
attr title  "ID of the serving eNodeB for the UE, vector"
attr unit  ""
vector 583  CAIN.ueD2DTx[11].nic.phy  servingCell:vector  ETV
attr source  servingCell
attr title  "ID of the serving eNodeB for the UE, vector"
attr unit  ""
vector 615  CAIN.ueD2DTx[12].nic.phy  servingCell:vector  ETV
attr source  servingCell
attr title  "ID of the serving eNodeB for the UE, vector"
attr unit  ""
vector 647  CAIN.ueD2DTx[13].nic.phy  servingCell:vector  ETV
attr source  servingCell
attr title  "ID of the serving eNodeB for the UE, vector"
attr unit  ""
vector 679  CAIN.ueD2DTx[14].nic.phy  servingCell:vector  ETV
attr source  servingCell
attr title  "ID of the serving eNodeB for the UE, vector"
attr unit  ""
vector 711  CAIN.ueD2DTx[15].nic.phy  servingCell:vector  ETV
attr source  servingCell
attr title  "ID of the serving eNodeB for the UE, vector"
attr unit  ""
vector 743  CAIN.ueD2DTx[16].nic.phy  servingCell:vector  ETV
attr source  servingCell
attr title  "ID of the serving eNodeB for the UE, vector"
attr unit  ""
vector 775  CAIN.ueD2DTx[17].nic.phy  servingCell:vector  ETV
attr source  servingCell
attr title  "ID of the serving eNodeB for the UE, vector"
attr unit  ""
vector 807  CAIN.ueD2DTx[18].nic.phy  servingCell:vector  ETV
attr source  servingCell
attr title  "ID of the serving eNodeB for the UE, vector"
attr unit  ""
vector 839  CAIN.ueD2DTx[19].nic.phy  servingCell:vector  ETV
attr source  servingCell
attr title  "ID of the serving eNodeB for the UE, vector"
attr unit  ""
vector 863  CAIN.eNodeB.sctp  "Throughput of Association 3"  ETV
vector 885  CAIN.eNodeB1.sctp  "Throughput of Association 4"  ETV
vector 907  CAIN.eNodeB.sctp  "Throughput of Association 1"  ETV
vector 927  CAIN.eNodeB.sctp  "Fast Recovery State 1:10.0.5.2"  ETV
vector 956  CAIN.eNodeB1.sctp  "Throughput of Association 2"  ETV
vector 976  CAIN.eNodeB1.sctp  "Fast Recovery State 2:10.0.5.1"  ETV
vector 128  CAIN.eNodeB.x2ppp[0].queue  rcvdPk:vector(packetBytes)  ETV
attr interpolationmode  none
attr title  "received packets, vector(packetBytes)"
vector 130  CAIN.eNodeB.x2ppp[0].queue  queueingTime:vector  ETV
attr interpolationmode  none
attr title  "queueing time, vector"
vector 186  CAIN.eNodeB1.x2ppp[0].queue  rcvdPk:vector(packetBytes)  ETV
attr interpolationmode  none
attr title  "received packets, vector(packetBytes)"
vector 188  CAIN.eNodeB1.x2ppp[0].queue  queueingTime:vector  ETV
attr interpolationmode  none
attr title  "queueing time, vector"
vector 137  CAIN.eNodeB.x2ppp[0].ppp  rcvdPkFromHL:vector(packetBytes)  ETV
attr interpolationmode  none
attr source  packetReceivedFromUpper
attr title  "packets received from higher layer, vector(packetBytes)"
vector 133  CAIN.eNodeB.x2ppp[0].ppp  txPk:vector(packetBytes)  ETV
attr interpolationmode  none
attr source  packetSentToLower
attr title  "packets transmitted, vector(packetBytes)"
vector 195  CAIN.eNodeB1.x2ppp[0].ppp  rcvdPkFromHL:vector(packetBytes)  ETV
attr interpolationmode  none
attr source  packetReceivedFromUpper
attr title  "packets received from higher layer, vector(packetBytes)"
vector 191  CAIN.eNodeB1.x2ppp[0].ppp  txPk:vector(packetBytes)  ETV
attr interpolationmode  none
attr source  packetSentToLower
attr title  "packets transmitted, vector(packetBytes)"
vector 192  CAIN.eNodeB1.x2ppp[0].ppp  rxPkOk:vector(packetBytes)  ETV
attr interpolationmode  none
attr source  rxPkOk
attr title  "packets received OK, vector(packetBytes)"
vector 196  CAIN.eNodeB1.x2ppp[0].ppp  passedUpPk:vector(packetBytes)  ETV
attr interpolationmode  none
attr source  packetSentToUpper
attr title  "packets passed to higher layer, vector(packetBytes)"
vector 134  CAIN.eNodeB.x2ppp[0].ppp  rxPkOk:vector(packetBytes)  ETV
attr interpolationmode  none
attr source  rxPkOk
attr title  "packets received OK, vector(packetBytes)"
vector 138  CAIN.eNodeB.x2ppp[0].ppp  passedUpPk:vector(packetBytes)  ETV
attr interpolationmode  none
attr source  packetSentToUpper
attr title  "packets passed to higher layer, vector(packetBytes)"
vector 1005  CAIN.eNodeB1.sctp  "Throughput of Association 4"  ETV
vector 882  CAIN.eNodeB1.sctp  "Peer Rwnd 4"  ETV
vector 1025  CAIN.eNodeB1.sctp  "Fast Recovery State 5:10.0.4.1"  ETV
vector 1052  CAIN.eNodeB1.sctp  "Fast Recovery State 5:10.0.2.2"  ETV
vector 1079  CAIN.eNodeB1.sctp  "Fast Recovery State 5:10.0.5.1"  ETV
vector 1108  CAIN.eNodeB.sctp  "Throughput of Association 3"  ETV
vector 860  CAIN.eNodeB.sctp  "Peer Rwnd 3"  ETV
vector 1128  CAIN.eNodeB.sctp  "Fast Recovery State 6:10.0.4.2"  ETV
vector 1155  CAIN.eNodeB.sctp  "Fast Recovery State 6:10.0.3.2"  ETV
vector 1182  CAIN.eNodeB.sctp  "Fast Recovery State 6:10.0.5.2"  ETV
vector 904  CAIN.eNodeB.sctp  "Peer Rwnd 1"  ETV
vector 1209  CAIN.eNodeB.sctp  "Fast Recovery State 1:10.0.4.2"  ETV
vector 1236  CAIN.eNodeB.sctp  "Fast Recovery State 1:10.0.3.2"  ETV
vector 953  CAIN.eNodeB1.sctp  "Peer Rwnd 2"  ETV
vector 1263  CAIN.eNodeB1.sctp  "Fast Recovery State 2:10.0.4.1"  ETV
vector 1290  CAIN.eNodeB1.sctp  "Fast Recovery State 2:10.0.2.2"  ETV
vector 1035  CAIN.eNodeB1.sctp  "Slow Start Threshold 5:10.0.2.2"  ETV
vector 1036  CAIN.eNodeB1.sctp  "Congestion Window 5:10.0.2.2"  ETV
vector 1037  CAIN.eNodeB1.sctp  "Bandwidth 5:10.0.2.2"  ETV
vector 1040  CAIN.eNodeB1.sctp  "HB Sent 5:10.0.2.2"  ETV
vector 1033  CAIN.eNodeB1.sctp  "RTO 5:10.0.2.2"  ETV
vector 1008  CAIN.eNodeB1.sctp  "Slow Start Threshold 5:10.0.4.1"  ETV
vector 1009  CAIN.eNodeB1.sctp  "Congestion Window 5:10.0.4.1"  ETV
vector 1010  CAIN.eNodeB1.sctp  "Bandwidth 5:10.0.4.1"  ETV
vector 1013  CAIN.eNodeB1.sctp  "HB Sent 5:10.0.4.1"  ETV
vector 1006  CAIN.eNodeB1.sctp  "RTO 5:10.0.4.1"  ETV
vector 1062  CAIN.eNodeB1.sctp  "Slow Start Threshold 5:10.0.5.1"  ETV
vector 1063  CAIN.eNodeB1.sctp  "Congestion Window 5:10.0.5.1"  ETV
vector 1064  CAIN.eNodeB1.sctp  "Bandwidth 5:10.0.5.1"  ETV
vector 1060  CAIN.eNodeB1.sctp  "RTO 5:10.0.5.1"  ETV
vector 1138  CAIN.eNodeB.sctp  "Slow Start Threshold 6:10.0.3.2"  ETV
vector 1139  CAIN.eNodeB.sctp  "Congestion Window 6:10.0.3.2"  ETV
vector 1140  CAIN.eNodeB.sctp  "Bandwidth 6:10.0.3.2"  ETV
vector 1143  CAIN.eNodeB.sctp  "HB Sent 6:10.0.3.2"  ETV
vector 1136  CAIN.eNodeB.sctp  "RTO 6:10.0.3.2"  ETV
vector 1111  CAIN.eNodeB.sctp  "Slow Start Threshold 6:10.0.4.2"  ETV
vector 1112  CAIN.eNodeB.sctp  "Congestion Window 6:10.0.4.2"  ETV
vector 1113  CAIN.eNodeB.sctp  "Bandwidth 6:10.0.4.2"  ETV
vector 1116  CAIN.eNodeB.sctp  "HB Sent 6:10.0.4.2"  ETV
vector 1109  CAIN.eNodeB.sctp  "RTO 6:10.0.4.2"  ETV
vector 1165  CAIN.eNodeB.sctp  "Slow Start Threshold 6:10.0.5.2"  ETV
vector 1166  CAIN.eNodeB.sctp  "Congestion Window 6:10.0.5.2"  ETV
vector 1167  CAIN.eNodeB.sctp  "Bandwidth 6:10.0.5.2"  ETV
vector 1163  CAIN.eNodeB.sctp  "RTO 6:10.0.5.2"  ETV
vector 916  CAIN.eNodeB.sctp  "HB ACK Sent 1:10.0.5.2"  ETV
vector 917  CAIN.eNodeB.sctp  "HB Received 1:10.0.5.2"  ETV
vector 965  CAIN.eNodeB1.sctp  "HB ACK Sent 2:10.0.5.1"  ETV
vector 966  CAIN.eNodeB1.sctp  "HB Received 2:10.0.5.1"  ETV
vector 1219  CAIN.eNodeB.sctp  "Slow Start Threshold 1:10.0.3.2"  ETV
vector 1220  CAIN.eNodeB.sctp  "Congestion Window 1:10.0.3.2"  ETV
vector 1221  CAIN.eNodeB.sctp  "Bandwidth 1:10.0.3.2"  ETV
vector 1224  CAIN.eNodeB.sctp  "HB Sent 1:10.0.3.2"  ETV
vector 1217  CAIN.eNodeB.sctp  "RTO 1:10.0.3.2"  ETV
vector 1192  CAIN.eNodeB.sctp  "Slow Start Threshold 1:10.0.4.2"  ETV
vector 1193  CAIN.eNodeB.sctp  "Congestion Window 1:10.0.4.2"  ETV
vector 1194  CAIN.eNodeB.sctp  "Bandwidth 1:10.0.4.2"  ETV
vector 1197  CAIN.eNodeB.sctp  "HB Sent 1:10.0.4.2"  ETV
vector 1190  CAIN.eNodeB.sctp  "RTO 1:10.0.4.2"  ETV
vector 910  CAIN.eNodeB.sctp  "Slow Start Threshold 1:10.0.5.2"  ETV
vector 911  CAIN.eNodeB.sctp  "Congestion Window 1:10.0.5.2"  ETV
vector 912  CAIN.eNodeB.sctp  "Bandwidth 1:10.0.5.2"  ETV
vector 908  CAIN.eNodeB.sctp  "RTO 1:10.0.5.2"  ETV
vector 1273  CAIN.eNodeB1.sctp  "Slow Start Threshold 2:10.0.2.2"  ETV
vector 1274  CAIN.eNodeB1.sctp  "Congestion Window 2:10.0.2.2"  ETV
vector 1275  CAIN.eNodeB1.sctp  "Bandwidth 2:10.0.2.2"  ETV
vector 1278  CAIN.eNodeB1.sctp  "HB Sent 2:10.0.2.2"  ETV
vector 1271  CAIN.eNodeB1.sctp  "RTO 2:10.0.2.2"  ETV
vector 1246  CAIN.eNodeB1.sctp  "Slow Start Threshold 2:10.0.4.1"  ETV
vector 1247  CAIN.eNodeB1.sctp  "Congestion Window 2:10.0.4.1"  ETV
vector 1248  CAIN.eNodeB1.sctp  "Bandwidth 2:10.0.4.1"  ETV
vector 1251  CAIN.eNodeB1.sctp  "HB Sent 2:10.0.4.1"  ETV
vector 1244  CAIN.eNodeB1.sctp  "RTO 2:10.0.4.1"  ETV
vector 959  CAIN.eNodeB1.sctp  "Slow Start Threshold 2:10.0.5.1"  ETV
vector 960  CAIN.eNodeB1.sctp  "Congestion Window 2:10.0.5.1"  ETV
vector 961  CAIN.eNodeB1.sctp  "Bandwidth 2:10.0.5.1"  ETV
vector 957  CAIN.eNodeB1.sctp  "RTO 2:10.0.5.1"  ETV
vector 1173  CAIN.eNodeB.sctp  "HB ACK Received 6:10.0.5.2"  ETV
vector 1164  CAIN.eNodeB.sctp  "RTT 6:10.0.5.2"  ETV
vector 1070  CAIN.eNodeB1.sctp  "HB ACK Received 5:10.0.5.1"  ETV
vector 1061  CAIN.eNodeB1.sctp  "RTT 5:10.0.5.1"  ETV
vector 1171  CAIN.eNodeB.sctp  "HB ACK Sent 6:10.0.5.2"  ETV
vector 1172  CAIN.eNodeB.sctp  "HB Received 6:10.0.5.2"  ETV
vector 1068  CAIN.eNodeB1.sctp  "HB ACK Sent 5:10.0.5.1"  ETV
vector 1069  CAIN.eNodeB1.sctp  "HB Received 5:10.0.5.1"  ETV
vector 967  CAIN.eNodeB1.sctp  "HB ACK Received 2:10.0.5.1"  ETV
vector 958  CAIN.eNodeB1.sctp  "RTT 2:10.0.5.1"  ETV
vector 918  CAIN.eNodeB.sctp  "HB ACK Received 1:10.0.5.2"  ETV
vector 909  CAIN.eNodeB.sctp  "RTT 1:10.0.5.2"  ETV
vector 96  CAIN.eNodeB.nic.mac  receivedPacketFromLowerLayer:vector(packetBytes)  ETV
attr interpolationmode  none
attr source  receivedPacketFromLowerLayer
vector 1305  CAIN.eNodeB.sctp  "SendQueue of Association 6"  ETV
vector 1168  CAIN.eNodeB.sctp  "TSN Sent 6:10.0.5.2"  ETV
vector 1175  CAIN.eNodeB.sctp  "Outstanding Bytes 6:10.0.5.2"  ETV
vector 848  CAIN.eNodeB.sctp  "Outstanding Bytes 3:Total"  ETV
vector 1174  CAIN.eNodeB.sctp  "Queued Sent Bytes 6:10.0.5.2"  ETV
vector 847  CAIN.eNodeB.sctp  "Queued Sent Bytes 3:Total"  ETV
vector 963  CAIN.eNodeB1.sctp  "TSN Received 2:10.0.5.1"  ETV
vector 939  CAIN.eNodeB1.sctp  "Queued Received Bytes 2:Total"  ETV
vector 935  CAIN.eNodeB1.sctp  "Advertised Receiver Window 2"  ETV
vector 944  CAIN.eNodeB1.sctp  "Number of Total Gap Blocks Stored 2"  ETV
vector 945  CAIN.eNodeB1.sctp  "Number of Revokable Gap Blocks Stored 2"  ETV
vector 946  CAIN.eNodeB1.sctp  "Number of Non-Revokable Gap Blocks Stored 2"  ETV
vector 947  CAIN.eNodeB1.sctp  "Number of Duplicate TSNs Stored 2"  ETV
vector 951  CAIN.eNodeB1.sctp  "Length of SACK Sent 2"  ETV
vector 948  CAIN.eNodeB1.sctp  "Number of Revokable Gap Blocks Sent 2"  ETV
vector 949  CAIN.eNodeB1.sctp  "Number of Non-Revokable Gap Blocks Sent 2"  ETV
vector 950  CAIN.eNodeB1.sctp  "Number of Duplicate TSNs Sent 2"  ETV
vector 955  CAIN.eNodeB1.sctp  "End to End Delay of Association 2"  ETV
vector 199  CAIN.eNodeB1.x2App[0].client  rcvdPk:vector(packetBytes)  ETV
attr interpolationmode  none
attr source  rcvdPk
attr title  "packets received, vector(packetBytes)"
vector 1304  CAIN.eNodeB.sctp  "Number of Gap Blocks in Last SACK of Association 6"  ETV
vector 849  CAIN.eNodeB.sctp  "Number of Revokable Gap Blocks in SACK 3"  ETV
vector 850  CAIN.eNodeB.sctp  "Number of Non-Revokable Gap Blocks in SACK 3"  ETV
vector 1185  CAIN.eNodeB.sctp  "TSN Acked CumAck 6:10.0.5.2"  ETV
vector 1151  CAIN.eNodeB.sctp  "Number of Gap Acked Chunks in Last SACK 6:10.0.3.2"  ETV
vector 1152  CAIN.eNodeB.sctp  "Number of Non-Revokable Gap Acked Chunks in Last SACK 6:10.0.3.2"  ETV
vector 1153  CAIN.eNodeB.sctp  "Number of Gap Missed Chunks in Last SACK 6:10.0.3.2"  ETV
vector 1124  CAIN.eNodeB.sctp  "Number of Gap Acked Chunks in Last SACK 6:10.0.4.2"  ETV
vector 1125  CAIN.eNodeB.sctp  "Number of Non-Revokable Gap Acked Chunks in Last SACK 6:10.0.4.2"  ETV
vector 1126  CAIN.eNodeB.sctp  "Number of Gap Missed Chunks in Last SACK 6:10.0.4.2"  ETV
vector 1178  CAIN.eNodeB.sctp  "Number of Gap Acked Chunks in Last SACK 6:10.0.5.2"  ETV
vector 1179  CAIN.eNodeB.sctp  "Number of Non-Revokable Gap Acked Chunks in Last SACK 6:10.0.5.2"  ETV
vector 1180  CAIN.eNodeB.sctp  "Number of Gap Missed Chunks in Last SACK 6:10.0.5.2"  ETV
vector 859  CAIN.eNodeB.sctp  "Arwnd in Last SACK 3"  ETV
vector 1187  CAIN.eNodeB.sctp  "TSN PseudoCumAck 6:10.0.5.2"  ETV
vector 1188  CAIN.eNodeB.sctp  "TSN RTXPseudoCumAck 6:10.0.5.2"  ETV
vector 1181  CAIN.eNodeB.sctp  "Partial Bytes Acked 6:10.0.5.2"  ETV
vector 1333  CAIN.ueD2DTx[13].tcp  tcpRcvQueueBytes  ETV
vector 1320  CAIN.ueD2DTx[13].tcp  "advertised window"  ETV
vector 1319  CAIN.ueD2DTx[13].tcp  "receive window"  ETV
vector 1322  CAIN.ueD2DTx[13].tcp  "sent ack"  ETV
vector 621  CAIN.ueD2DTx[13].nic.pdcpRrc  receivedPacketFromUpperLayer:vector(packetBytes)  ETV
attr interpolationmode  none
attr source  receivedPacketFromUpperLayer
vector 624  CAIN.ueD2DTx[13].nic.pdcpRrc  sentPacketToLowerLayer:vector(packetBytes)  ETV
attr interpolationmode  none
attr source  sentPacketToLowerLayer
vector 625  CAIN.ueD2DTx[13].nic.mac  receivedPacketFromUpperLayer:vector(packetBytes)  ETV
attr interpolationmode  none
attr source  receivedPacketFromUpperLayer
vector 635  CAIN.ueD2DTx[13].nic.mac  CainHopMessageSent:vector  ETV
attr interpolationmode  none
attr title  "# of Sent CAIN hop message, vector"
vector 628  CAIN.ueD2DTx[13].nic.mac  sentPacketToLowerLayer:vector(packetBytes)  ETV
attr interpolationmode  none
attr source  sentPacketToLowerLayer
vector 1357  CAIN.ueD2DTx[19].tcp  tcpRcvQueueBytes  ETV
vector 1344  CAIN.ueD2DTx[19].tcp  "advertised window"  ETV
vector 1343  CAIN.ueD2DTx[19].tcp  "receive window"  ETV
vector 1346  CAIN.ueD2DTx[19].tcp  "sent ack"  ETV
vector 813  CAIN.ueD2DTx[19].nic.pdcpRrc  receivedPacketFromUpperLayer:vector(packetBytes)  ETV
attr interpolationmode  none
attr source  receivedPacketFromUpperLayer
vector 816  CAIN.ueD2DTx[19].nic.pdcpRrc  sentPacketToLowerLayer:vector(packetBytes)  ETV
attr interpolationmode  none
attr source  sentPacketToLowerLayer
vector 817  CAIN.ueD2DTx[19].nic.mac  receivedPacketFromUpperLayer:vector(packetBytes)  ETV
attr interpolationmode  none
attr source  receivedPacketFromUpperLayer
vector 1381  CAIN.ueD2DTx[12].tcp  tcpRcvQueueBytes  ETV
vector 1368  CAIN.ueD2DTx[12].tcp  "advertised window"  ETV
vector 1367  CAIN.ueD2DTx[12].tcp  "receive window"  ETV
vector 1370  CAIN.ueD2DTx[12].tcp  "sent ack"  ETV
vector 589  CAIN.ueD2DTx[12].nic.pdcpRrc  receivedPacketFromUpperLayer:vector(packetBytes)  ETV
attr interpolationmode  none
attr source  receivedPacketFromUpperLayer
vector 592  CAIN.ueD2DTx[12].nic.pdcpRrc  sentPacketToLowerLayer:vector(packetBytes)  ETV
attr interpolationmode  none
attr source  sentPacketToLowerLayer
vector 593  CAIN.ueD2DTx[12].nic.mac  receivedPacketFromUpperLayer:vector(packetBytes)  ETV
attr interpolationmode  none
attr source  receivedPacketFromUpperLayer
vector 603  CAIN.ueD2DTx[12].nic.mac  CainHopMessageSent:vector  ETV
attr interpolationmode  none
attr title  "# of Sent CAIN hop message, vector"
vector 596  CAIN.ueD2DTx[12].nic.mac  sentPacketToLowerLayer:vector(packetBytes)  ETV
attr interpolationmode  none
attr source  sentPacketToLowerLayer
vector 820  CAIN.ueD2DTx[19].nic.mac  sentPacketToLowerLayer:vector(packetBytes)  ETV
attr interpolationmode  none
attr source  sentPacketToLowerLayer
vector 530  CAIN.ueD2DTx[10].nic.mac  receivedPacketFromLowerLayer:vector(packetBytes)  ETV
attr interpolationmode  none
attr source  receivedPacketFromLowerLayer
vector 532  CAIN.ueD2DTx[10].nic.mac  sentPacketToLowerLayer:vector(packetBytes)  ETV
attr interpolationmode  none
attr source  sentPacketToLowerLayer
vector 562  CAIN.ueD2DTx[11].nic.mac  receivedPacketFromLowerLayer:vector(packetBytes)  ETV
attr interpolationmode  none
attr source  receivedPacketFromLowerLayer
vector 564  CAIN.ueD2DTx[11].nic.mac  sentPacketToLowerLayer:vector(packetBytes)  ETV
attr interpolationmode  none
attr source  sentPacketToLowerLayer
vector 111  CAIN.eNodeB.nic.mac  racpkt:vector  ETV
attr interpolationmode  none
attr title  "eNB received racpkt message, vector"
vector 112  CAIN.eNodeB.nic.mac  racDistanceSignal:vector  ETV
attr interpolationmode  none
attr title  "Rac distance to enb, vector"
vector 113  CAIN.eNodeB.nic.mac  racServedDevsSignal:vector  ETV
attr interpolationmode  none
attr title  "# of devices served on rac arriavall, vector"
vector 98  CAIN.eNodeB.nic.mac  sentPacketToLowerLayer:vector(packetBytes)  ETV
attr interpolationmode  none
attr source  sentPacketToLowerLayer
vector 786  CAIN.ueD2DTx[18].nic.mac  receivedPacketFromLowerLayer:vector(packetBytes)  ETV
attr interpolationmode  none
attr source  receivedPacketFromLowerLayer
vector 788  CAIN.ueD2DTx[18].nic.mac  sentPacketToLowerLayer:vector(packetBytes)  ETV
attr interpolationmode  none
attr source  sentPacketToLowerLayer
vector 498  CAIN.ueD2DTx[9].nic.mac  receivedPacketFromLowerLayer:vector(packetBytes)  ETV
attr interpolationmode  none
attr source  receivedPacketFromLowerLayer
vector 500  CAIN.ueD2DTx[9].nic.mac  sentPacketToLowerLayer:vector(packetBytes)  ETV
attr interpolationmode  none
attr source  sentPacketToLowerLayer
vector 818  CAIN.ueD2DTx[19].nic.mac  receivedPacketFromLowerLayer:vector(packetBytes)  ETV
attr interpolationmode  none
attr source  receivedPacketFromLowerLayer
vector 106  CAIN.eNodeB.nic.mac  DistanceSignal:vector  ETV
attr interpolationmode  none
attr title  "Distance to enb, vector"
vector 101  CAIN.eNodeB.nic.mac  CainHopMessage:vector  ETV
attr interpolationmode  none
attr title  "eNB received CAIN hop message, vector"
vector 793  CAIN.ueD2DTx[18].nic.mac  DropedHopMessage:vector  ETV
attr interpolationmode  none
attr title  "Droped Hop CAIN message due to RB not available, vector"
vector 819  CAIN.ueD2DTx[19].nic.mac  sentPacketToUpperLayer:vector(packetBytes)  ETV
attr interpolationmode  none
attr source  sentPacketToUpperLayer
vector 505  CAIN.ueD2DTx[9].nic.mac  DropedHopMessage:vector  ETV
attr interpolationmode  none
attr title  "Droped Hop CAIN message due to RB not available, vector"
vector 115  CAIN.eNodeB.nic.phy  averageCqiUlvect:vector  ETV
attr source  averageCqiUlvect
attr title  "Average Cqi reported in UL, vector"
attr unit  cqi
vector 1405  CAIN.ueD2DTx[11].tcp  tcpRcvQueueBytes  ETV
vector 1392  CAIN.ueD2DTx[11].tcp  "advertised window"  ETV
vector 1391  CAIN.ueD2DTx[11].tcp  "receive window"  ETV
vector 1394  CAIN.ueD2DTx[11].tcp  "sent ack"  ETV
vector 557  CAIN.ueD2DTx[11].nic.pdcpRrc  receivedPacketFromUpperLayer:vector(packetBytes)  ETV
attr interpolationmode  none
attr source  receivedPacketFromUpperLayer
vector 560  CAIN.ueD2DTx[11].nic.pdcpRrc  sentPacketToLowerLayer:vector(packetBytes)  ETV
attr interpolationmode  none
attr source  sentPacketToLowerLayer
vector 561  CAIN.ueD2DTx[11].nic.mac  receivedPacketFromUpperLayer:vector(packetBytes)  ETV
attr interpolationmode  none
attr source  receivedPacketFromUpperLayer
vector 99  CAIN.eNodeB.nic.mac  measuredItbs:vector  ETV
attr source  measuredItbs
attr title  "TBS index, vector"
attr unit  ""
vector 570  CAIN.ueD2DTx[11].nic.mac  CainMessageSent:vector  ETV
attr interpolationmode  none
attr title  "# of Sent CAIN message, vector"
vector 100  CAIN.eNodeB.nic.mac  CainMessage:vector  ETV
attr interpolationmode  none
attr title  "eNB received CAIN message, vector"
vector 1429  CAIN.ueD2DTx[7].tcp  tcpRcvQueueBytes  ETV
vector 1416  CAIN.ueD2DTx[7].tcp  "advertised window"  ETV
vector 1415  CAIN.ueD2DTx[7].tcp  "receive window"  ETV
vector 1418  CAIN.ueD2DTx[7].tcp  "sent ack"  ETV
vector 429  CAIN.ueD2DTx[7].nic.pdcpRrc  receivedPacketFromUpperLayer:vector(packetBytes)  ETV
attr interpolationmode  none
attr source  receivedPacketFromUpperLayer
vector 432  CAIN.ueD2DTx[7].nic.pdcpRrc  sentPacketToLowerLayer:vector(packetBytes)  ETV
attr interpolationmode  none
attr source  sentPacketToLowerLayer
vector 433  CAIN.ueD2DTx[7].nic.mac  receivedPacketFromUpperLayer:vector(packetBytes)  ETV
attr interpolationmode  none
attr source  receivedPacketFromUpperLayer
vector 436  CAIN.ueD2DTx[7].nic.mac  sentPacketToLowerLayer:vector(packetBytes)  ETV
attr interpolationmode  none
attr source  sentPacketToLowerLayer
vector 504  CAIN.ueD2DTx[9].nic.mac  DropedCainMessage:vector  ETV
attr interpolationmode  none
attr title  "Droped CAIN message due to RB not available, vector"
vector 1453  CAIN.ueD2DTx[6].tcp  tcpRcvQueueBytes  ETV
vector 1440  CAIN.ueD2DTx[6].tcp  "advertised window"  ETV
vector 1439  CAIN.ueD2DTx[6].tcp  "receive window"  ETV
vector 1442  CAIN.ueD2DTx[6].tcp  "sent ack"  ETV
vector 397  CAIN.ueD2DTx[6].nic.pdcpRrc  receivedPacketFromUpperLayer:vector(packetBytes)  ETV
attr interpolationmode  none
attr source  receivedPacketFromUpperLayer
vector 400  CAIN.ueD2DTx[6].nic.pdcpRrc  sentPacketToLowerLayer:vector(packetBytes)  ETV
attr interpolationmode  none
attr source  sentPacketToLowerLayer
vector 401  CAIN.ueD2DTx[6].nic.mac  receivedPacketFromUpperLayer:vector(packetBytes)  ETV
attr interpolationmode  none
attr source  receivedPacketFromUpperLayer
vector 410  CAIN.ueD2DTx[6].nic.mac  CainMessageSent:vector  ETV
attr interpolationmode  none
attr title  "# of Sent CAIN message, vector"
vector 404  CAIN.ueD2DTx[6].nic.mac  sentPacketToLowerLayer:vector(packetBytes)  ETV
attr interpolationmode  none
attr source  sentPacketToLowerLayer
vector 434  CAIN.ueD2DTx[7].nic.mac  receivedPacketFromLowerLayer:vector(packetBytes)  ETV
attr interpolationmode  none
attr source  receivedPacketFromLowerLayer
vector 97  CAIN.eNodeB.nic.mac  sentPacketToUpperLayer:vector(packetBytes)  ETV
attr interpolationmode  none
attr source  sentPacketToUpperLayer
vector 92  CAIN.eNodeB.nic.pdcpRrc  receivedPacketFromLowerLayer:vector(packetBytes)  ETV
attr interpolationmode  none
attr source  receivedPacketFromLowerLayer
vector 93  CAIN.eNodeB.nic.pdcpRrc  sentPacketToUpperLayer:vector(packetBytes)  ETV
attr interpolationmode  none
attr source  sentPacketToUpperLayer
vector 86  CAIN.eNodeB.udp  sentPk:vector(packetBytes)  ETV
attr interpolationmode  none
attr source  sentPk
attr title  "packets sent, vector(packetBytes)"
vector 145  CAIN.eNodeB1.udp  rcvdPk:vector(packetBytes)  ETV
attr interpolationmode  none
attr source  rcvdPk
attr title  "packets received, vector(packetBytes)"
vector 146  CAIN.eNodeB1.udp  passedUpPk:vector(count)  ETV
attr interpolationmode  none
attr title  "packets passed up, vector(count)"
vector 435  CAIN.ueD2DTx[7].nic.mac  sentPacketToUpperLayer:vector(packetBytes)  ETV
attr interpolationmode  none
attr source  sentPacketToUpperLayer
vector 1477  CAIN.ueD2DTx[2].tcp  tcpRcvQueueBytes  ETV
vector 1464  CAIN.ueD2DTx[2].tcp  "advertised window"  ETV
vector 1463  CAIN.ueD2DTx[2].tcp  "receive window"  ETV
vector 1466  CAIN.ueD2DTx[2].tcp  "sent ack"  ETV
vector 269  CAIN.ueD2DTx[2].nic.pdcpRrc  receivedPacketFromUpperLayer:vector(packetBytes)  ETV
attr interpolationmode  none
attr source  receivedPacketFromUpperLayer
vector 272  CAIN.ueD2DTx[2].nic.pdcpRrc  sentPacketToLowerLayer:vector(packetBytes)  ETV
attr interpolationmode  none
attr source  sentPacketToLowerLayer
vector 273  CAIN.ueD2DTx[2].nic.mac  receivedPacketFromUpperLayer:vector(packetBytes)  ETV
attr interpolationmode  none
attr source  receivedPacketFromUpperLayer
vector 276  CAIN.ueD2DTx[2].nic.mac  sentPacketToLowerLayer:vector(packetBytes)  ETV
attr interpolationmode  none
attr source  sentPacketToLowerLayer
vector 1501  CAIN.ueD2DTx[10].tcp  tcpRcvQueueBytes  ETV
vector 1488  CAIN.ueD2DTx[10].tcp  "advertised window"  ETV
vector 1487  CAIN.ueD2DTx[10].tcp  "receive window"  ETV
vector 1490  CAIN.ueD2DTx[10].tcp  "sent ack"  ETV
vector 525  CAIN.ueD2DTx[10].nic.pdcpRrc  receivedPacketFromUpperLayer:vector(packetBytes)  ETV
attr interpolationmode  none
attr source  receivedPacketFromUpperLayer
vector 528  CAIN.ueD2DTx[10].nic.pdcpRrc  sentPacketToLowerLayer:vector(packetBytes)  ETV
attr interpolationmode  none
attr source  sentPacketToLowerLayer
vector 529  CAIN.ueD2DTx[10].nic.mac  receivedPacketFromUpperLayer:vector(packetBytes)  ETV
attr interpolationmode  none
attr source  receivedPacketFromUpperLayer
vector 1525  CAIN.ueD2DTx[14].tcp  tcpRcvQueueBytes  ETV
vector 1512  CAIN.ueD2DTx[14].tcp  "advertised window"  ETV
vector 1511  CAIN.ueD2DTx[14].tcp  "receive window"  ETV
vector 1514  CAIN.ueD2DTx[14].tcp  "sent ack"  ETV
vector 653  CAIN.ueD2DTx[14].nic.pdcpRrc  receivedPacketFromUpperLayer:vector(packetBytes)  ETV
attr interpolationmode  none
attr source  receivedPacketFromUpperLayer
vector 656  CAIN.ueD2DTx[14].nic.pdcpRrc  sentPacketToLowerLayer:vector(packetBytes)  ETV
attr interpolationmode  none
attr source  sentPacketToLowerLayer
vector 657  CAIN.ueD2DTx[14].nic.mac  receivedPacketFromUpperLayer:vector(packetBytes)  ETV
attr interpolationmode  none
attr source  receivedPacketFromUpperLayer
vector 538  CAIN.ueD2DTx[10].nic.mac  CainMessageSent:vector  ETV
attr interpolationmode  none
attr title  "# of Sent CAIN message, vector"
vector 667  CAIN.ueD2DTx[14].nic.mac  CainHopMessageSent:vector  ETV
attr interpolationmode  none
attr title  "# of Sent CAIN hop message, vector"
vector 660  CAIN.ueD2DTx[14].nic.mac  sentPacketToLowerLayer:vector(packetBytes)  ETV
attr interpolationmode  none
attr source  sentPacketToLowerLayer
vector 274  CAIN.ueD2DTx[2].nic.mac  receivedPacketFromLowerLayer:vector(packetBytes)  ETV
attr interpolationmode  none
attr source  receivedPacketFromLowerLayer
vector 275  CAIN.ueD2DTx[2].nic.mac  sentPacketToUpperLayer:vector(packetBytes)  ETV
attr interpolationmode  none
attr source  sentPacketToUpperLayer
vector 1549  CAIN.ueD2DTx[4].tcp  tcpRcvQueueBytes  ETV
vector 1536  CAIN.ueD2DTx[4].tcp  "advertised window"  ETV
vector 1535  CAIN.ueD2DTx[4].tcp  "receive window"  ETV
vector 1538  CAIN.ueD2DTx[4].tcp  "sent ack"  ETV
vector 333  CAIN.ueD2DTx[4].nic.pdcpRrc  receivedPacketFromUpperLayer:vector(packetBytes)  ETV
attr interpolationmode  none
attr source  receivedPacketFromUpperLayer
vector 336  CAIN.ueD2DTx[4].nic.pdcpRrc  sentPacketToLowerLayer:vector(packetBytes)  ETV
attr interpolationmode  none
attr source  sentPacketToLowerLayer
vector 337  CAIN.ueD2DTx[4].nic.mac  receivedPacketFromUpperLayer:vector(packetBytes)  ETV
attr interpolationmode  none
attr source  receivedPacketFromUpperLayer
vector 347  CAIN.ueD2DTx[4].nic.mac  CainHopMessageSent:vector  ETV
attr interpolationmode  none
attr title  "# of Sent CAIN hop message, vector"
vector 340  CAIN.ueD2DTx[4].nic.mac  sentPacketToLowerLayer:vector(packetBytes)  ETV
attr interpolationmode  none
attr source  sentPacketToLowerLayer
vector 792  CAIN.ueD2DTx[18].nic.mac  DropedCainMessage:vector  ETV
attr interpolationmode  none
attr title  "Droped CAIN message due to RB not available, vector"
vector 1573  CAIN.ueD2DTx[8].tcp  tcpRcvQueueBytes  ETV
vector 1560  CAIN.ueD2DTx[8].tcp  "advertised window"  ETV
vector 1559  CAIN.ueD2DTx[8].tcp  "receive window"  ETV
vector 1562  CAIN.ueD2DTx[8].tcp  "sent ack"  ETV
vector 461  CAIN.ueD2DTx[8].nic.pdcpRrc  receivedPacketFromUpperLayer:vector(packetBytes)  ETV
attr interpolationmode  none
attr source  receivedPacketFromUpperLayer
vector 464  CAIN.ueD2DTx[8].nic.pdcpRrc  sentPacketToLowerLayer:vector(packetBytes)  ETV
attr interpolationmode  none
attr source  sentPacketToLowerLayer
vector 465  CAIN.ueD2DTx[8].nic.mac  receivedPacketFromUpperLayer:vector(packetBytes)  ETV
attr interpolationmode  none
attr source  receivedPacketFromUpperLayer
vector 468  CAIN.ueD2DTx[8].nic.mac  sentPacketToLowerLayer:vector(packetBytes)  ETV
attr interpolationmode  none
attr source  sentPacketToLowerLayer
vector 1597  CAIN.ueD2DTx[9].tcp  tcpRcvQueueBytes  ETV
vector 1584  CAIN.ueD2DTx[9].tcp  "advertised window"  ETV
vector 1583  CAIN.ueD2DTx[9].tcp  "receive window"  ETV
vector 1586  CAIN.ueD2DTx[9].tcp  "sent ack"  ETV
vector 493  CAIN.ueD2DTx[9].nic.pdcpRrc  receivedPacketFromUpperLayer:vector(packetBytes)  ETV
attr interpolationmode  none
attr source  receivedPacketFromUpperLayer
vector 496  CAIN.ueD2DTx[9].nic.pdcpRrc  sentPacketToLowerLayer:vector(packetBytes)  ETV
attr interpolationmode  none
attr source  sentPacketToLowerLayer
vector 497  CAIN.ueD2DTx[9].nic.mac  receivedPacketFromUpperLayer:vector(packetBytes)  ETV
attr interpolationmode  none
attr source  receivedPacketFromUpperLayer
vector 466  CAIN.ueD2DTx[8].nic.mac  receivedPacketFromLowerLayer:vector(packetBytes)  ETV
attr interpolationmode  none
attr source  receivedPacketFromLowerLayer
vector 1621  CAIN.ueD2DTx[15].tcp  tcpRcvQueueBytes  ETV
vector 1608  CAIN.ueD2DTx[15].tcp  "advertised window"  ETV
vector 1607  CAIN.ueD2DTx[15].tcp  "receive window"  ETV
vector 1610  CAIN.ueD2DTx[15].tcp  "sent ack"  ETV
vector 685  CAIN.ueD2DTx[15].nic.pdcpRrc  receivedPacketFromUpperLayer:vector(packetBytes)  ETV
attr interpolationmode  none
attr source  receivedPacketFromUpperLayer
vector 688  CAIN.ueD2DTx[15].nic.pdcpRrc  sentPacketToLowerLayer:vector(packetBytes)  ETV
attr interpolationmode  none
attr source  sentPacketToLowerLayer
vector 689  CAIN.ueD2DTx[15].nic.mac  receivedPacketFromUpperLayer:vector(packetBytes)  ETV
attr interpolationmode  none
attr source  receivedPacketFromUpperLayer
vector 467  CAIN.ueD2DTx[8].nic.mac  sentPacketToUpperLayer:vector(packetBytes)  ETV
attr interpolationmode  none
attr source  sentPacketToUpperLayer
vector 692  CAIN.ueD2DTx[15].nic.mac  sentPacketToLowerLayer:vector(packetBytes)  ETV
attr interpolationmode  none
attr source  sentPacketToLowerLayer
vector 1645  CAIN.ueD2DTx[17].tcp  tcpRcvQueueBytes  ETV
vector 1632  CAIN.ueD2DTx[17].tcp  "advertised window"  ETV
vector 1631  CAIN.ueD2DTx[17].tcp  "receive window"  ETV
vector 1634  CAIN.ueD2DTx[17].tcp  "sent ack"  ETV
vector 749  CAIN.ueD2DTx[17].nic.pdcpRrc  receivedPacketFromUpperLayer:vector(packetBytes)  ETV
attr interpolationmode  none
attr source  receivedPacketFromUpperLayer
vector 752  CAIN.ueD2DTx[17].nic.pdcpRrc  sentPacketToLowerLayer:vector(packetBytes)  ETV
attr interpolationmode  none
attr source  sentPacketToLowerLayer
vector 753  CAIN.ueD2DTx[17].nic.mac  receivedPacketFromUpperLayer:vector(packetBytes)  ETV
attr interpolationmode  none
attr source  receivedPacketFromUpperLayer
vector 1669  CAIN.ueD2DTx[0].tcp  tcpRcvQueueBytes  ETV
vector 1656  CAIN.ueD2DTx[0].tcp  "advertised window"  ETV
vector 1655  CAIN.ueD2DTx[0].tcp  "receive window"  ETV
vector 1658  CAIN.ueD2DTx[0].tcp  "sent ack"  ETV
vector 205  CAIN.ueD2DTx[0].nic.pdcpRrc  receivedPacketFromUpperLayer:vector(packetBytes)  ETV
attr interpolationmode  none
attr source  receivedPacketFromUpperLayer
vector 208  CAIN.ueD2DTx[0].nic.pdcpRrc  sentPacketToLowerLayer:vector(packetBytes)  ETV
attr interpolationmode  none
attr source  sentPacketToLowerLayer
vector 209  CAIN.ueD2DTx[0].nic.mac  receivedPacketFromUpperLayer:vector(packetBytes)  ETV
attr interpolationmode  none
attr source  receivedPacketFromUpperLayer
vector 219  CAIN.ueD2DTx[0].nic.mac  CainHopMessageSent:vector  ETV
attr interpolationmode  none
attr title  "# of Sent CAIN hop message, vector"
vector 212  CAIN.ueD2DTx[0].nic.mac  sentPacketToLowerLayer:vector(packetBytes)  ETV
attr interpolationmode  none
attr source  sentPacketToLowerLayer
vector 499  CAIN.ueD2DTx[9].nic.mac  sentPacketToUpperLayer:vector(packetBytes)  ETV
attr interpolationmode  none
attr source  sentPacketToUpperLayer
vector 763  CAIN.ueD2DTx[17].nic.mac  CainHopMessageSent:vector  ETV
attr interpolationmode  none
attr title  "# of Sent CAIN hop message, vector"
vector 756  CAIN.ueD2DTx[17].nic.mac  sentPacketToLowerLayer:vector(packetBytes)  ETV
attr interpolationmode  none
attr source  sentPacketToLowerLayer
vector 690  CAIN.ueD2DTx[15].nic.mac  receivedPacketFromLowerLayer:vector(packetBytes)  ETV
attr interpolationmode  none
attr source  receivedPacketFromLowerLayer
vector 109  CAIN.eNodeB.nic.mac  ServedHopDevs:vector  ETV
attr interpolationmode  none
attr title  "# of devices served on hop forwarding, vector"
vector 108  CAIN.eNodeB.nic.mac  ServedDevs:vector  ETV
attr interpolationmode  none
attr title  "# of devices served on cain forwarding, vector"
vector 411  CAIN.ueD2DTx[6].nic.mac  CainHopMessageSent:vector  ETV
attr interpolationmode  none
attr title  "# of Sent CAIN hop message, vector"
vector 691  CAIN.ueD2DTx[15].nic.mac  sentPacketToUpperLayer:vector(packetBytes)  ETV
attr interpolationmode  none
attr source  sentPacketToUpperLayer
vector 149  CAIN.eNodeB1.nic.pdcpRrc  receivedPacketFromUpperLayer:vector(packetBytes)  ETV
attr interpolationmode  none
attr source  receivedPacketFromUpperLayer
vector 152  CAIN.eNodeB1.nic.pdcpRrc  sentPacketToLowerLayer:vector(packetBytes)  ETV
attr interpolationmode  none
attr source  sentPacketToLowerLayer
vector 1301  CAIN.eNodeB1.sctp  "SendQueue of Association 5"  ETV
vector 1065  CAIN.eNodeB1.sctp  "TSN Sent 5:10.0.5.1"  ETV
vector 1072  CAIN.eNodeB1.sctp  "Outstanding Bytes 5:10.0.5.1"  ETV
vector 870  CAIN.eNodeB1.sctp  "Outstanding Bytes 4:Total"  ETV
vector 1071  CAIN.eNodeB1.sctp  "Queued Sent Bytes 5:10.0.5.1"  ETV
vector 869  CAIN.eNodeB1.sctp  "Queued Sent Bytes 4:Total"  ETV
vector 153  CAIN.eNodeB1.nic.mac  receivedPacketFromUpperLayer:vector(packetBytes)  ETV
attr interpolationmode  none
attr source  receivedPacketFromUpperLayer
vector 914  CAIN.eNodeB.sctp  "TSN Received 1:10.0.5.2"  ETV
vector 890  CAIN.eNodeB.sctp  "Queued Received Bytes 1:Total"  ETV
vector 886  CAIN.eNodeB.sctp  "Advertised Receiver Window 1"  ETV
vector 895  CAIN.eNodeB.sctp  "Number of Total Gap Blocks Stored 1"  ETV
vector 896  CAIN.eNodeB.sctp  "Number of Revokable Gap Blocks Stored 1"  ETV
vector 897  CAIN.eNodeB.sctp  "Number of Non-Revokable Gap Blocks Stored 1"  ETV
vector 898  CAIN.eNodeB.sctp  "Number of Duplicate TSNs Stored 1"  ETV
vector 902  CAIN.eNodeB.sctp  "Length of SACK Sent 1"  ETV
vector 899  CAIN.eNodeB.sctp  "Number of Revokable Gap Blocks Sent 1"  ETV
vector 900  CAIN.eNodeB.sctp  "Number of Non-Revokable Gap Blocks Sent 1"  ETV
vector 901  CAIN.eNodeB.sctp  "Number of Duplicate TSNs Sent 1"  ETV
vector 906  CAIN.eNodeB.sctp  "End to End Delay of Association 1"  ETV
vector 141  CAIN.eNodeB.x2App[0].client  rcvdPk:vector(packetBytes)  ETV
attr interpolationmode  none
attr source  rcvdPk
attr title  "packets received, vector(packetBytes)"
vector 1300  CAIN.eNodeB1.sctp  "Number of Gap Blocks in Last SACK of Association 5"  ETV
vector 871  CAIN.eNodeB1.sctp  "Number of Revokable Gap Blocks in SACK 4"  ETV
vector 872  CAIN.eNodeB1.sctp  "Number of Non-Revokable Gap Blocks in SACK 4"  ETV
vector 1082  CAIN.eNodeB1.sctp  "TSN Acked CumAck 5:10.0.5.1"  ETV
vector 1048  CAIN.eNodeB1.sctp  "Number of Gap Acked Chunks in Last SACK 5:10.0.2.2"  ETV
vector 1049  CAIN.eNodeB1.sctp  "Number of Non-Revokable Gap Acked Chunks in Last SACK 5:10.0.2.2"  ETV
vector 1050  CAIN.eNodeB1.sctp  "Number of Gap Missed Chunks in Last SACK 5:10.0.2.2"  ETV
vector 1021  CAIN.eNodeB1.sctp  "Number of Gap Acked Chunks in Last SACK 5:10.0.4.1"  ETV
vector 1022  CAIN.eNodeB1.sctp  "Number of Non-Revokable Gap Acked Chunks in Last SACK 5:10.0.4.1"  ETV
vector 1023  CAIN.eNodeB1.sctp  "Number of Gap Missed Chunks in Last SACK 5:10.0.4.1"  ETV
vector 1075  CAIN.eNodeB1.sctp  "Number of Gap Acked Chunks in Last SACK 5:10.0.5.1"  ETV
vector 1076  CAIN.eNodeB1.sctp  "Number of Non-Revokable Gap Acked Chunks in Last SACK 5:10.0.5.1"  ETV
vector 1077  CAIN.eNodeB1.sctp  "Number of Gap Missed Chunks in Last SACK 5:10.0.5.1"  ETV
vector 881  CAIN.eNodeB1.sctp  "Arwnd in Last SACK 4"  ETV
vector 1084  CAIN.eNodeB1.sctp  "TSN PseudoCumAck 5:10.0.5.1"  ETV
vector 1085  CAIN.eNodeB1.sctp  "TSN RTXPseudoCumAck 5:10.0.5.1"  ETV
vector 1078  CAIN.eNodeB1.sctp  "Partial Bytes Acked 5:10.0.5.1"  ETV
vector 1693  CAIN.ueD2DTx[1].tcp  tcpRcvQueueBytes  ETV
vector 1680  CAIN.ueD2DTx[1].tcp  "advertised window"  ETV
vector 1679  CAIN.ueD2DTx[1].tcp  "receive window"  ETV
vector 1682  CAIN.ueD2DTx[1].tcp  "sent ack"  ETV
vector 237  CAIN.ueD2DTx[1].nic.pdcpRrc  receivedPacketFromUpperLayer:vector(packetBytes)  ETV
attr interpolationmode  none
attr source  receivedPacketFromUpperLayer
vector 240  CAIN.ueD2DTx[1].nic.pdcpRrc  sentPacketToLowerLayer:vector(packetBytes)  ETV
attr interpolationmode  none
attr source  sentPacketToLowerLayer
vector 241  CAIN.ueD2DTx[1].nic.mac  receivedPacketFromUpperLayer:vector(packetBytes)  ETV
attr interpolationmode  none
attr source  receivedPacketFromUpperLayer
vector 251  CAIN.ueD2DTx[1].nic.mac  CainHopMessageSent:vector  ETV
attr interpolationmode  none
attr title  "# of Sent CAIN hop message, vector"
vector 244  CAIN.ueD2DTx[1].nic.mac  sentPacketToLowerLayer:vector(packetBytes)  ETV
attr interpolationmode  none
attr source  sentPacketToLowerLayer
vector 117  CAIN.eNodeB.pppIf.queue  rcvdPk:vector(packetBytes)  ETV
attr interpolationmode  none
attr title  "received packets, vector(packetBytes)"
vector 119  CAIN.eNodeB.pppIf.queue  queueingTime:vector  ETV
attr interpolationmode  none
attr title  "queueing time, vector"
vector 126  CAIN.eNodeB.pppIf.ppp  rcvdPkFromHL:vector(packetBytes)  ETV
attr interpolationmode  none
attr source  packetReceivedFromUpper
attr title  "packets received from higher layer, vector(packetBytes)"
vector 122  CAIN.eNodeB.pppIf.ppp  txPk:vector(packetBytes)  ETV
attr interpolationmode  none
attr source  packetSentToLower
attr title  "packets transmitted, vector(packetBytes)"
vector 59  CAIN.pgw.ppp[0].ppp  rxPkOk:vector(packetBytes)  ETV
attr interpolationmode  none
attr source  rxPkOk
attr title  "packets received OK, vector(packetBytes)"
vector 63  CAIN.pgw.ppp[0].ppp  passedUpPk:vector(packetBytes)  ETV
attr interpolationmode  none
attr source  packetSentToUpper
attr title  "packets passed to higher layer, vector(packetBytes)"
vector 44  CAIN.pgw.udp  rcvdPk:vector(packetBytes)  ETV
attr interpolationmode  none
attr source  rcvdPk
attr title  "packets received, vector(packetBytes)"
vector 45  CAIN.pgw.udp  passedUpPk:vector(count)  ETV
attr interpolationmode  none
attr title  "packets passed up, vector(count)"
vector 43  CAIN.pgw.udp  sentPk:vector(packetBytes)  ETV
attr interpolationmode  none
attr source  sentPk
attr title  "packets sent, vector(packetBytes)"
vector 64  CAIN.pgw.ppp[1].queue  rcvdPk:vector(packetBytes)  ETV
attr interpolationmode  none
attr title  "received packets, vector(packetBytes)"
vector 66  CAIN.pgw.ppp[1].queue  queueingTime:vector  ETV
attr interpolationmode  none
attr title  "queueing time, vector"
vector 73  CAIN.pgw.ppp[1].ppp  rcvdPkFromHL:vector(packetBytes)  ETV
attr interpolationmode  none
attr source  packetReceivedFromUpper
attr title  "packets received from higher layer, vector(packetBytes)"
vector 69  CAIN.pgw.ppp[1].ppp  txPk:vector(packetBytes)  ETV
attr interpolationmode  none
attr source  packetSentToLower
attr title  "packets transmitted, vector(packetBytes)"
vector 181  CAIN.eNodeB1.pppIf.ppp  rxPkOk:vector(packetBytes)  ETV
attr interpolationmode  none
attr source  rxPkOk
attr title  "packets received OK, vector(packetBytes)"
vector 185  CAIN.eNodeB1.pppIf.ppp  passedUpPk:vector(packetBytes)  ETV
attr interpolationmode  none
attr source  packetSentToUpper
attr title  "packets passed to higher layer, vector(packetBytes)"
vector 1717  CAIN.ueD2DTx[5].tcp  tcpRcvQueueBytes  ETV
vector 1704  CAIN.ueD2DTx[5].tcp  "advertised window"  ETV
vector 1703  CAIN.ueD2DTx[5].tcp  "receive window"  ETV
vector 1706  CAIN.ueD2DTx[5].tcp  "sent ack"  ETV
vector 365  CAIN.ueD2DTx[5].nic.pdcpRrc  receivedPacketFromUpperLayer:vector(packetBytes)  ETV
attr interpolationmode  none
attr source  receivedPacketFromUpperLayer
vector 368  CAIN.ueD2DTx[5].nic.pdcpRrc  sentPacketToLowerLayer:vector(packetBytes)  ETV
attr interpolationmode  none
attr source  sentPacketToLowerLayer
vector 369  CAIN.ueD2DTx[5].nic.mac  receivedPacketFromUpperLayer:vector(packetBytes)  ETV
attr interpolationmode  none
attr source  receivedPacketFromUpperLayer
vector 379  CAIN.ueD2DTx[5].nic.mac  CainHopMessageSent:vector  ETV
attr interpolationmode  none
attr title  "# of Sent CAIN hop message, vector"
vector 372  CAIN.ueD2DTx[5].nic.mac  sentPacketToLowerLayer:vector(packetBytes)  ETV
attr interpolationmode  none
attr source  sentPacketToLowerLayer
vector 154  CAIN.eNodeB1.nic.mac  receivedPacketFromLowerLayer:vector(packetBytes)  ETV
attr interpolationmode  none
attr source  receivedPacketFromLowerLayer
vector 1741  CAIN.ueD2DTx[3].tcp  tcpRcvQueueBytes  ETV
vector 1728  CAIN.ueD2DTx[3].tcp  "advertised window"  ETV
vector 1727  CAIN.ueD2DTx[3].tcp  "receive window"  ETV
vector 1730  CAIN.ueD2DTx[3].tcp  "sent ack"  ETV
vector 301  CAIN.ueD2DTx[3].nic.pdcpRrc  receivedPacketFromUpperLayer:vector(packetBytes)  ETV
attr interpolationmode  none
attr source  receivedPacketFromUpperLayer
vector 304  CAIN.ueD2DTx[3].nic.pdcpRrc  sentPacketToLowerLayer:vector(packetBytes)  ETV
attr interpolationmode  none
attr source  sentPacketToLowerLayer
vector 305  CAIN.ueD2DTx[3].nic.mac  receivedPacketFromUpperLayer:vector(packetBytes)  ETV
attr interpolationmode  none
attr source  receivedPacketFromUpperLayer
vector 315  CAIN.ueD2DTx[3].nic.mac  CainHopMessageSent:vector  ETV
attr interpolationmode  none
attr title  "# of Sent CAIN hop message, vector"
vector 308  CAIN.ueD2DTx[3].nic.mac  sentPacketToLowerLayer:vector(packetBytes)  ETV
attr interpolationmode  none
attr source  sentPacketToLowerLayer
vector 658  CAIN.ueD2DTx[14].nic.mac  receivedPacketFromLowerLayer:vector(packetBytes)  ETV
attr interpolationmode  none
attr source  receivedPacketFromLowerLayer
vector 626  CAIN.ueD2DTx[13].nic.mac  receivedPacketFromLowerLayer:vector(packetBytes)  ETV
attr interpolationmode  none
attr source  receivedPacketFromLowerLayer
vector 1765  CAIN.ueD2DTx[16].tcp  tcpRcvQueueBytes  ETV
vector 1752  CAIN.ueD2DTx[16].tcp  "advertised window"  ETV
vector 1751  CAIN.ueD2DTx[16].tcp  "receive window"  ETV
vector 1754  CAIN.ueD2DTx[16].tcp  "sent ack"  ETV
vector 717  CAIN.ueD2DTx[16].nic.pdcpRrc  receivedPacketFromUpperLayer:vector(packetBytes)  ETV
attr interpolationmode  none
attr source  receivedPacketFromUpperLayer
vector 720  CAIN.ueD2DTx[16].nic.pdcpRrc  sentPacketToLowerLayer:vector(packetBytes)  ETV
attr interpolationmode  none
attr source  sentPacketToLowerLayer
vector 721  CAIN.ueD2DTx[16].nic.mac  receivedPacketFromUpperLayer:vector(packetBytes)  ETV
attr interpolationmode  none
attr source  receivedPacketFromUpperLayer
vector 730  CAIN.ueD2DTx[16].nic.mac  CainMessageSent:vector  ETV
attr interpolationmode  none
attr title  "# of Sent CAIN message, vector"
vector 724  CAIN.ueD2DTx[16].nic.mac  sentPacketToLowerLayer:vector(packetBytes)  ETV
attr interpolationmode  none
attr source  sentPacketToLowerLayer
vector 1789  CAIN.ueD2DTx[18].tcp  tcpRcvQueueBytes  ETV
vector 1776  CAIN.ueD2DTx[18].tcp  "advertised window"  ETV
vector 1775  CAIN.ueD2DTx[18].tcp  "receive window"  ETV
vector 1778  CAIN.ueD2DTx[18].tcp  "sent ack"  ETV
vector 781  CAIN.ueD2DTx[18].nic.pdcpRrc  receivedPacketFromUpperLayer:vector(packetBytes)  ETV
attr interpolationmode  none
attr source  receivedPacketFromUpperLayer
vector 784  CAIN.ueD2DTx[18].nic.pdcpRrc  sentPacketToLowerLayer:vector(packetBytes)  ETV
attr interpolationmode  none
attr source  sentPacketToLowerLayer
vector 785  CAIN.ueD2DTx[18].nic.mac  receivedPacketFromUpperLayer:vector(packetBytes)  ETV
attr interpolationmode  none
attr source  receivedPacketFromUpperLayer
vector 787  CAIN.ueD2DTx[18].nic.mac  sentPacketToUpperLayer:vector(packetBytes)  ETV
attr interpolationmode  none
attr source  sentPacketToUpperLayer
vector 157  CAIN.eNodeB1.nic.mac  measuredItbs:vector  ETV
attr source  measuredItbs
attr title  "TBS index, vector"
attr unit  ""
vector 155  CAIN.eNodeB1.nic.mac  sentPacketToUpperLayer:vector(packetBytes)  ETV
attr interpolationmode  none
attr source  sentPacketToUpperLayer
vector 156  CAIN.eNodeB1.nic.mac  sentPacketToLowerLayer:vector(packetBytes)  ETV
attr interpolationmode  none
attr source  sentPacketToLowerLayer
vector 228  CAIN.ueD2DTx[0].nic.phy  averageCqiDlvect:vector  ETV
attr source  averageCqiDlvect
attr title  "Average Cqi reported in DL, vector"
attr unit  cqi
vector 210  CAIN.ueD2DTx[0].nic.mac  receivedPacketFromLowerLayer:vector(packetBytes)  ETV
attr interpolationmode  none
attr source  receivedPacketFromLowerLayer
vector 211  CAIN.ueD2DTx[0].nic.mac  sentPacketToUpperLayer:vector(packetBytes)  ETV
attr interpolationmode  none
attr source  sentPacketToUpperLayer
vector 206  CAIN.ueD2DTx[0].nic.pdcpRrc  receivedPacketFromLowerLayer:vector(packetBytes)  ETV
attr interpolationmode  none
attr source  receivedPacketFromLowerLayer
vector 207  CAIN.ueD2DTx[0].nic.pdcpRrc  sentPacketToUpperLayer:vector(packetBytes)  ETV
attr interpolationmode  none
attr source  sentPacketToUpperLayer
vector 602  CAIN.ueD2DTx[12].nic.mac  CainMessageSent:vector  ETV
attr interpolationmode  none
attr title  "# of Sent CAIN message, vector"
vector 169  CAIN.eNodeB1.nic.mac  racpkt:vector  ETV
attr interpolationmode  none
attr title  "eNB received racpkt message, vector"
vector 170  CAIN.eNodeB1.nic.mac  racDistanceSignal:vector  ETV
attr interpolationmode  none
attr title  "Rac distance to enb, vector"
vector 171  CAIN.eNodeB1.nic.mac  racServedDevsSignal:vector  ETV
attr interpolationmode  none
attr title  "# of devices served on rac arriavall, vector"
vector 627  CAIN.ueD2DTx[13].nic.mac  sentPacketToUpperLayer:vector(packetBytes)  ETV
attr interpolationmode  none
attr source  sentPacketToUpperLayer
vector 173  CAIN.eNodeB1.nic.phy  averageCqiUlvect:vector  ETV
attr source  averageCqiUlvect
attr title  "Average Cqi reported in UL, vector"
attr unit  cqi
vector 402  CAIN.ueD2DTx[6].nic.mac  receivedPacketFromLowerLayer:vector(packetBytes)  ETV
attr interpolationmode  none
attr source  receivedPacketFromLowerLayer
vector 150  CAIN.eNodeB1.nic.pdcpRrc  receivedPacketFromLowerLayer:vector(packetBytes)  ETV
attr interpolationmode  none
attr source  receivedPacketFromLowerLayer
vector 151  CAIN.eNodeB1.nic.pdcpRrc  sentPacketToUpperLayer:vector(packetBytes)  ETV
attr interpolationmode  none
attr source  sentPacketToUpperLayer
vector 403  CAIN.ueD2DTx[6].nic.mac  sentPacketToUpperLayer:vector(packetBytes)  ETV
attr interpolationmode  none
attr source  sentPacketToUpperLayer
vector 666  CAIN.ueD2DTx[14].nic.mac  CainMessageSent:vector  ETV
attr interpolationmode  none
attr title  "# of Sent CAIN message, vector"
vector 594  CAIN.ueD2DTx[12].nic.mac  receivedPacketFromLowerLayer:vector(packetBytes)  ETV
attr interpolationmode  none
attr source  receivedPacketFromLowerLayer
vector 731  CAIN.ueD2DTx[16].nic.mac  CainHopMessageSent:vector  ETV
attr interpolationmode  none
attr title  "# of Sent CAIN hop message, vector"
1108	150	0.0000001228	0
1219	235	0.0000006304	65535
1220	235	0.0000006304	8940
1221	235	0.0000006304	0.3725
1217	235	0.0000006304	3
1224	235	0.0000006304	1
1236	163	0.0000003096	0
1192	235	0.0000006304	65535
1193	235	0.0000006304	8940
1194	235	0.0000006304	0.3725
1190	235	0.0000006304	3
1197	235	0.0000006304	1
1209	163	0.0000003096	0
910	235	0.0000006304	65535
911	235	0.0000006304	8940
912	235	0.0000006304	0.3725
908	235	0.0000006304	3
908	302	0.0000008564	1
909	302	0.0000008564	2.26e-07
914	3753	0.0570000972	2000
914	3772	0.0570004484	2001
914	3772	0.0570004484	2002
914	3772	0.0570004484	2003
914	3772	0.0570004484	2004
914	3772	0.0570004484	2005
914	3772	0.0570004484	2006
914	3772	0.0570004484	2007
914	3772	0.0570004484	2008
914	3772	0.0570004484	2009
914	3772	0.0570004484	2010
914	3772	0.0570004484	2011
914	13749	0.2570021596	2012
914	13749	0.2570021596	2013
914	13749	0.2570021596	2014
914	13749	0.2570021596	2015
914	13749	0.2570021596	2016
914	13749	0.2570021596	2017
914	13749	0.2570021596	2018
914	13749	0.2570021596	2019
914	13749	0.2570021596	2020
914	13749	0.2570021596	2021
914	13749	0.2570021596	2022
914	13749	0.2570021596	2023
914	13749	0.2570021596	2024
914	13749	0.2570021596	2025
914	13749	0.2570021596	2026
914	13749	0.2570021596	2027
914	13749	0.2570021596	2028
914	13749	0.2570021596	2029
914	13749	0.2570021596	2030
914	13749	0.2570021596	2031
914	13749	0.2570021596	2032
914	13749	0.2570021596	2033
914	13749	0.2570021596	2034
914	13749	0.2570021596	2035
914	13749	0.2570021596	2036
914	13749	0.2570021596	2037
914	13749	0.2570021596	2038
914	13749	0.2570021596	2039
914	13749	0.2570021596	2040
914	13749	0.2570021596	2041
914	13749	0.2570021596	2042
914	13749	0.2570021596	2043
914	13749	0.2570021596	2044
914	13749	0.2570021596	2045
914	13749	0.2570021596	2046
914	13749	0.2570021596	2047
914	13749	0.2570021596	2048
914	13749	0.2570021596	2049
914	13749	0.2570021596	2050
914	13749	0.2570021596	2051
914	13749	0.2570021596	2052
914	13749	0.2570021596	2053
914	13749	0.2570021596	2054
914	13749	0.2570021596	2055
914	13749	0.2570021596	2056
914	13749	0.2570021596	2057
914	13749	0.2570021596	2058
914	13749	0.2570021596	2059
914	13749	0.2570021596	2060
914	13749	0.2570021596	2061
914	13749	0.2570021596	2062
914	13749	0.2570021596	2063
914	13749	0.2570021596	2064
914	13749	0.2570021596	2065
914	13749	0.2570021596	2066
914	13749	0.2570021596	2067
914	13749	0.2570021596	2068
914	13749	0.2570021596	2069
914	13749	0.2570021596	2070
914	13749	0.2570021596	2071
914	13749	0.2570021596	2072
914	13749	0.2570021596	2073
914	13749	0.2570021596	2074
914	13749	0.2570021596	2075
914	13749	0.2570021596	2076
914	13749	0.2570021596	2077
914	13749	0.2570021596	2078
914	13749	0.2570021596	2079
914	13749	0.2570021596	2080
914	13749	0.2570021596	2081
914	13749	0.2570021596	2082
914	13749	0.2570021596	2083
914	13749	0.2570021596	2084
914	13749	0.2570021596	2085
914	13749	0.2570021596	2086
914	13749	0.2570021596	2087
914	13749	0.2570021596	2088
914	13749	0.2570021596	2089
914	13749	0.2570021596	2090
914	13749	0.2570021596	2091
914	13749	0.2570021596	2092
914	13749	0.2570021596	2093
914	13749	0.2570021596	2094
914	13749	0.2570021596	2095
914	13749	0.2570021596	2096
914	13749	0.2570021596	2097
914	13749	0.2570021596	2098
914	13749	0.2570021596	2099
914	13749	0.2570021596	2100
914	13749	0.2570021596	2101
914	13749	0.2570021596	2102
914	13749	0.2570021596	2103
914	13749	0.2570021596	2104
914	13749	0.2570021596	2105
914	13749	0.2570021596	2106
914	13749	0.2570021596	2107
917	207	0.000000552	1
917	221	0.000000596	2
916	207	0.000000552	1
916	221	0.000000596	2
918	302	0.0000008564	1
918	308	0.0000009004	2
927	131	0	0
886	3753	0.0570000972	65533
886	13735	0.2570004484	65535
886	23094	0.4570021596	65535
890	3753	0.0570000972	2
890	3756	0.0570000972	2
890	3784	0.0570004484	22
890	3785	0.0570004484	0
890	3786	0.0570004484	0
890	3787	0.0570004484	0
890	3788	0.0570004484	0
890	3789	0.0570004484	0
890	3790	0.0570004484	0
890	3791	0.0570004484	0
890	3792	0.0570004484	0
890	3793	0.0570004484	0
890	3794	0.0570004484	0
890	13735	0.2570004484	0
890	13846	0.2570021596	192
890	13847	0.2570021596	0
890	13848	0.2570021596	0
890	13849	0.2570021596	0
890	13850	0.2570021596	0
890	13851	0.2570021596	0
890	13852	0.2570021596	0
890	13853	0.2570021596	0
890	13854	0.2570021596	0
890	13855	0.2570021596	0
890	13856	0.2570021596	0
890	13857	0.2570021596	0
890	13858	0.2570021596	0
890	13859	0.2570021596	0
890	13860	0.2570021596	0
890	13861	0.2570021596	0
890	13862	0.2570021596	0
890	13863	0.2570021596	0
890	13864	0.2570021596	0
890	13865	0.2570021596	0
890	13866	0.2570021596	0
890	13867	0.2570021596	0
890	13868	0.2570021596	0
890	13869	0.2570021596	0
890	13870	0.2570021596	0
890	13871	0.2570021596	0
890	13872	0.2570021596	0
890	13873	0.2570021596	0
890	13874	0.2570021596	0
890	13875	0.2570021596	0
890	13876	0.2570021596	0
890	13877	0.2570021596	0
890	13878	0.2570021596	0
890	13879	0.2570021596	0
890	13880	0.2570021596	0
890	13881	0.2570021596	0
890	13882	0.2570021596	0
890	13883	0.2570021596	0
890	13884	0.2570021596	0
890	13885	0.2570021596	0
890	13886	0.2570021596	0
890	13887	0.2570021596	0
890	13888	0.2570021596	0
890	13889	0.2570021596	0
890	13890	0.2570021596	0
890	13891	0.2570021596	0
890	13892	0.2570021596	0
890	13893	0.2570021596	0
890	13894	0.2570021596	0
890	13895	0.2570021596	0
890	13896	0.2570021596	0
890	13897	0.2570021596	0
890	13898	0.2570021596	0
890	13899	0.2570021596	0
890	13900	0.2570021596	0
890	13901	0.2570021596	0
890	13902	0.2570021596	0
890	13903	0.2570021596	0
890	13904	0.2570021596	0
890	13905	0.2570021596	0
890	13906	0.2570021596	0
890	13907	0.2570021596	0
890	13908	0.2570021596	0
890	13909	0.2570021596	0
890	13910	0.2570021596	0
890	13911	0.2570021596	0
890	13912	0.2570021596	0
890	13913	0.2570021596	0
890	13914	0.2570021596	0
890	13915	0.2570021596	0
890	13916	0.2570021596	0
890	13917	0.2570021596	0
890	13918	0.2570021596	0
890	13919	0.2570021596	0
890	13920	0.2570021596	0
890	13921	0.2570021596	0
890	13922	0.2570021596	0
890	13923	0.2570021596	0
890	13924	0.2570021596	0
890	13925	0.2570021596	0
890	13926	0.2570021596	0
890	13927	0.2570021596	0
890	13928	0.2570021596	0
890	13929	0.2570021596	0
890	13930	0.2570021596	0
890	13931	0.2570021596	0
890	13932	0.2570021596	0
890	13933	0.2570021596	0
890	13934	0.2570021596	0
890	13935	0.2570021596	0
890	13936	0.2570021596	0
890	13937	0.2570021596	0
890	13938	0.2570021596	0
890	13939	0.2570021596	0
890	13940	0.2570021596	0
890	13941	0.2570021596	0
890	23094	0.4570021596	0
895	3753	0.0570000972	0
895	13735	0.2570004484	0
895	23094	0.4570021596	0
896	3753	0.0570000972	0
896	13735	0.2570004484	0
896	23094	0.4570021596	0
897	3753	0.0570000972	0
897	13735	0.2570004484	0
897	23094	0.4570021596	0
898	3753	0.0570000972	0
898	13735	0.2570004484	0
898	23094	0.4570021596	0
899	3753	0.0570000972	0
899	13735	0.2570004484	0
899	23094	0.4570021596	0
900	3753	0.0570000972	0
900	13735	0.2570004484	0
900	23094	0.4570021596	0
901	3753	0.0570000972	0
901	13735	0.2570004484	0
901	23094	0.4570021596	0
902	3753	0.0570000972	16
902	13735	0.2570004484	16
902	23094	0.4570021596	16
904	163	0.0000003096	65535
906	3756	0.0570000972	9.72e-08
906	3784	0.0570004484	2.572e-07
906	3784	0.0570004484	2.572e-07
906	3784	0.0570004484	2.572e-07
906	3784	0.0570004484	2.572e-07
906	3784	0.0570004484	2.572e-07
906	3784	0.0570004484	2.572e-07
906	3784	0.0570004484	2.572e-07
906	3784	0.0570004484	2.572e-07
906	3784	0.0570004484	2.572e-07
906	3784	0.0570004484	2.572e-07
906	3784	0.0570004484	2.572e-07
906	13846	0.2570021596	1.6172e-06
906	13846	0.2570021596	1.6172e-06
906	13846	0.2570021596	1.6172e-06
906	13846	0.2570021596	1.6172e-06
906	13846	0.2570021596	1.6172e-06
906	13846	0.2570021596	1.6172e-06
906	13846	0.2570021596	1.6172e-06
906	13846	0.2570021596	1.6172e-06
906	13846	0.2570021596	1.6172e-06
906	13846	0.2570021596	1.6172e-06
906	13846	0.2570021596	1.6172e-06
906	13846	0.2570021596	1.6172e-06
906	13846	0.2570021596	1.6172e-06
906	13846	0.2570021596	1.6172e-06
906	13846	0.2570021596	1.6172e-06
906	13846	0.2570021596	1.6172e-06
906	13846	0.2570021596	1.6172e-06
906	13846	0.2570021596	1.6172e-06
906	13846	0.2570021596	1.6172e-06
906	13846	0.2570021596	1.6172e-06
906	13846	0.2570021596	1.6172e-06
906	13846	0.2570021596	1.6172e-06
906	13846	0.2570021596	1.6172e-06
906	13846	0.2570021596	1.6172e-06
906	13846	0.2570021596	1.6172e-06
906	13846	0.2570021596	1.6172e-06
906	13846	0.2570021596	1.6172e-06
906	13846	0.2570021596	1.6172e-06
906	13846	0.2570021596	1.6172e-06
906	13846	0.2570021596	1.6172e-06
906	13846	0.2570021596	1.6172e-06
906	13846	0.2570021596	1.6172e-06
906	13846	0.2570021596	1.6172e-06
906	13846	0.2570021596	1.6172e-06
906	13846	0.2570021596	1.6172e-06
906	13846	0.2570021596	1.6172e-06
906	13846	0.2570021596	1.6172e-06
906	13846	0.2570021596	1.6172e-06
906	13846	0.2570021596	1.6172e-06
906	13846	0.2570021596	1.6172e-06
906	13846	0.2570021596	1.6172e-06
906	13846	0.2570021596	1.6172e-06
906	13846	0.2570021596	1.6172e-06
906	13846	0.2570021596	1.6172e-06
906	13846	0.2570021596	1.6172e-06
906	13846	0.2570021596	1.6172e-06
906	13846	0.2570021596	1.6172e-06
906	13846	0.2570021596	1.6172e-06
906	13846	0.2570021596	1.6172e-06
906	13846	0.2570021596	1.6172e-06
906	13846	0.2570021596	1.6172e-06
906	13846	0.2570021596	1.6172e-06
906	13846	0.2570021596	1.6172e-06
906	13846	0.2570021596	1.6172e-06
906	13846	0.2570021596	1.6172e-06
906	13846	0.2570021596	1.6172e-06
906	13846	0.2570021596	1.6172e-06
906	13846	0.2570021596	1.6172e-06
906	13846	0.2570021596	1.6172e-06
906	13846	0.2570021596	1.6172e-06
906	13846	0.2570021596	1.6172e-06
906	13846	0.2570021596	1.6172e-06
906	13846	0.2570021596	1.6172e-06
906	13846	0.2570021596	1.6172e-06
906	13846	0.2570021596	1.6172e-06
906	13846	0.2570021596	1.6172e-06
906	13846	0.2570021596	1.6172e-06
906	13846	0.2570021596	1.6172e-06
906	13846	0.2570021596	1.6172e-06
906	13846	0.2570021596	1.6172e-06
906	13846	0.2570021596	1.6172e-06
906	13846	0.2570021596	1.6172e-06
906	13846	0.2570021596	1.6172e-06
906	13846	0.2570021596	1.6172e-06
906	13846	0.2570021596	1.6172e-06
906	13846	0.2570021596	1.6172e-06
906	13846	0.2570021596	1.6172e-06
906	13846	0.2570021596	1.6172e-06
906	13846	0.2570021596	1.6172e-06
906	13846	0.2570021596	1.6172e-06
906	13846	0.2570021596	1.6172e-06
906	13846	0.2570021596	1.6172e-06
906	13846	0.2570021596	1.6172e-06
906	13846	0.2570021596	1.6172e-06
906	13846	0.2570021596	1.6172e-06
906	13846	0.2570021596	1.6172e-06
906	13846	0.2570021596	1.6172e-06
906	13846	0.2570021596	1.6172e-06
906	13846	0.2570021596	1.6172e-06
906	13846	0.2570021596	1.6172e-06
906	13846	0.2570021596	1.6172e-06
906	13846	0.2570021596	1.6172e-06
906	13846	0.2570021596	1.6172e-06
906	13846	0.2570021596	1.6172e-06
906	13846	0.2570021596	1.6172e-06
906	13846	0.2570021596	1.6172e-06
907	131	0	0
1138	178	0.000000458	65535
1139	178	0.000000458	8940
1140	178	0.000000458	0.3725
1136	178	0.000000458	3
1143	178	0.000000458	1
1151	651	0.0070001912	0
1151	11073	0.2070005424	0
1151	20879	0.4070022536	0
1152	651	0.0070001912	0
1152	11073	0.2070005424	0
1152	20879	0.4070022536	0
1153	651	0.0070001912	0
1153	11073	0.2070005424	0
1153	20879	0.4070022536	0
1155	150	0.0000001228	0
1111	178	0.000000458	65535
1112	178	0.000000458	8940
1113	178	0.000000458	0.3725
1109	178	0.000000458	3
1116	178	0.000000458	1
1124	651	0.0070001912	0
1124	11073	0.2070005424	0
1124	20879	0.4070022536	0
1125	651	0.0070001912	0
1125	11073	0.2070005424	0
1125	20879	0.4070022536	0
1126	651	0.0070001912	0
1126	11073	0.2070005424	0
1126	20879	0.4070022536	0
1128	150	0.0000001228	0
1165	178	0.000000458	65535
1165	56280	1.2070005424	65535
1166	178	0.000000458	8940
1166	56280	1.2070005424	8940
1167	178	0.000000458	0.3725
1167	56280	1.2070005424	23.84
1163	178	0.000000458	3
1163	255	0.0000006744	1
1163	651	0.0070001912	1
1163	11073	0.2070005424	1
1163	20879	0.4070022536	1
1164	255	0.0000006744	2.164e-07
1164	651	0.0070001912	1.912e-07
1164	11073	0.2070005424	0.2000003512
1164	20879	0.4070022536	0.2000017112
1168	597	0.007	2000
1168	651	0.0070001912	2001
1168	651	0.0070001912	2002
1168	651	0.0070001912	2003
1168	651	0.0070001912	2004
1168	651	0.0070001912	2005
1168	651	0.0070001912	2006
1168	651	0.0070001912	2007
1168	651	0.0070001912	2008
1168	651	0.0070001912	2009
1168	651	0.0070001912	2010
1168	651	0.0070001912	2011
1168	11073	0.2070005424	2012
1168	11073	0.2070005424	2013
1168	11073	0.2070005424	2014
1168	11073	0.2070005424	2015
1168	11073	0.2070005424	2016
1168	11073	0.2070005424	2017
1168	11073	0.2070005424	2018
1168	11073	0.2070005424	2019
1168	11073	0.2070005424	2020
1168	11073	0.2070005424	2021
1168	11073	0.2070005424	2022
1168	11073	0.2070005424	2023
1168	11073	0.2070005424	2024
1168	11073	0.2070005424	2025
1168	11073	0.2070005424	2026
1168	11073	0.2070005424	2027
1168	11073	0.2070005424	2028
1168	11073	0.2070005424	2029
1168	11073	0.2070005424	2030
1168	11073	0.2070005424	2031
1168	11073	0.2070005424	2032
1168	11073	0.2070005424	2033
1168	11073	0.2070005424	2034
1168	11073	0.2070005424	2035
1168	11073	0.2070005424	2036
1168	11073	0.2070005424	2037
1168	11073	0.2070005424	2038
1168	11073	0.2070005424	2039
1168	11073	0.2070005424	2040
1168	11073	0.2070005424	2041
1168	11073	0.2070005424	2042
1168	11073	0.2070005424	2043
1168	11073	0.2070005424	2044
1168	11073	0.2070005424	2045
1168	11073	0.2070005424	2046
1168	11073	0.2070005424	2047
1168	11073	0.2070005424	2048
1168	11073	0.2070005424	2049
1168	11073	0.2070005424	2050
1168	11073	0.2070005424	2051
1168	11073	0.2070005424	2052
1168	11073	0.2070005424	2053
1168	11073	0.2070005424	2054
1168	11073	0.2070005424	2055
1168	11073	0.2070005424	2056
1168	11073	0.2070005424	2057
1168	11073	0.2070005424	2058
1168	11073	0.2070005424	2059
1168	11073	0.2070005424	2060
1168	11073	0.2070005424	2061
1168	11073	0.2070005424	2062
1168	11073	0.2070005424	2063
1168	11073	0.2070005424	2064
1168	11073	0.2070005424	2065
1168	11073	0.2070005424	2066
1168	11073	0.2070005424	2067
1168	11073	0.2070005424	2068
1168	11073	0.2070005424	2069
1168	11073	0.2070005424	2070
1168	11073	0.2070005424	2071
1168	11073	0.2070005424	2072
1168	11073	0.2070005424	2073
1168	11073	0.2070005424	2074
1168	11073	0.2070005424	2075
1168	11073	0.2070005424	2076
1168	11073	0.2070005424	2077
1168	11073	0.2070005424	2078
1168	11073	0.2070005424	2079
1168	11073	0.2070005424	2080
1168	11073	0.2070005424	2081
1168	11073	0.2070005424	2082
1168	11073	0.2070005424	2083
1168	11073	0.2070005424	2084
1168	11073	0.2070005424	2085
1168	11073	0.2070005424	2086
1168	11073	0.2070005424	2087
1168	11073	0.2070005424	2088
1168	11073	0.2070005424	2089
1168	11073	0.2070005424	2090
1168	11073	0.2070005424	2091
1168	11073	0.2070005424	2092
1168	11073	0.2070005424	2093
1168	11073	0.2070005424	2094
1168	11073	0.2070005424	2095
1168	11073	0.2070005424	2096
1168	11073	0.2070005424	2097
1168	11073	0.2070005424	2098
1168	11073	0.2070005424	2099
1168	11073	0.2070005424	2100
1168	11073	0.2070005424	2101
1168	11073	0.2070005424	2102
1168	11073	0.2070005424	2103
1168	11073	0.2070005424	2104
1168	11073	0.2070005424	2105
1168	11073	0.2070005424	2106
1168	11073	0.2070005424	2107
1172	273	0.0000007624	1
1172	287	0.0000008064	2
1171	273	0.0000007624	1
1171	287	0.0000008064	2
1173	255	0.0000006744	1
1173	265	0.0000007184	2
1174	597	0.007	2
1174	651	0.0070001912	0
1174	651	0.0070001912	2
1174	651	0.0070001912	4
1174	651	0.0070001912	6
1174	651	0.0070001912	8
1174	651	0.0070001912	10
1174	651	0.0070001912	12
1174	651	0.0070001912	14
1174	651	0.0070001912	16
1174	651	0.0070001912	18
1174	651	0.0070001912	20
1174	651	0.0070001912	22
1174	11073	0.2070005424	20
1174	11073	0.2070005424	18
1174	11073	0.2070005424	16
1174	11073	0.2070005424	14
1174	11073	0.2070005424	12
1174	11073	0.2070005424	10
1174	11073	0.2070005424	8
1174	11073	0.2070005424	6
1174	11073	0.2070005424	4
1174	11073	0.2070005424	2
1174	11073	0.2070005424	0
1174	11073	0.2070005424	2
1174	11073	0.2070005424	4
1174	11073	0.2070005424	6
1174	11073	0.2070005424	8
1174	11073	0.2070005424	10
1174	11073	0.2070005424	12
1174	11073	0.2070005424	14
1174	11073	0.2070005424	16
1174	11073	0.2070005424	18
1174	11073	0.2070005424	20
1174	11073	0.2070005424	22
1174	11073	0.2070005424	24
1174	11073	0.2070005424	26
1174	11073	0.2070005424	28
1174	11073	0.2070005424	30
1174	11073	0.2070005424	32
1174	11073	0.2070005424	34
1174	11073	0.2070005424	36
1174	11073	0.2070005424	38
1174	11073	0.2070005424	40
1174	11073	0.2070005424	42
1174	11073	0.2070005424	44
1174	11073	0.2070005424	46
1174	11073	0.2070005424	48
1174	11073	0.2070005424	50
1174	11073	0.2070005424	52
1174	11073	0.2070005424	54
1174	11073	0.2070005424	56
1174	11073	0.2070005424	58
1174	11073	0.2070005424	60
1174	11073	0.2070005424	62
1174	11073	0.2070005424	64
1174	11073	0.2070005424	66
1174	11073	0.2070005424	68
1174	11073	0.2070005424	70
1174	11073	0.2070005424	72
1174	11073	0.2070005424	74
1174	11073	0.2070005424	76
1174	11073	0.2070005424	78
1174	11073	0.2070005424	80
1174	11073	0.2070005424	82
1174	11073	0.2070005424	84
1174	11073	0.2070005424	86
1174	11073	0.2070005424	88
1174	11073	0.2070005424	90
1174	11073	0.2070005424	92
1174	11073	0.2070005424	94
1174	11073	0.2070005424	96
1174	11073	0.2070005424	98
1174	11073	0.2070005424	100
1174	11073	0.2070005424	102
1174	11073	0.2070005424	104
1174	11073	0.2070005424	106
1174	11073	0.2070005424	108
1174	11073	0.2070005424	110
1174	11073	0.2070005424	112
1174	11073	0.2070005424	114
1174	11073	0.2070005424	116
1174	11073	0.2070005424	118
1174	11073	0.2070005424	120
1174	11073	0.2070005424	122
1174	11073	0.2070005424	124
1174	11073	0.2070005424	126
1174	11073	0.2070005424	128
1174	11073	0.2070005424	130
1174	11073	0.2070005424	132
1174	11073	0.2070005424	134
1174	11073	0.2070005424	136
1174	11073	0.2070005424	138
1174	11073	0.2070005424	140
1174	11073	0.2070005424	142
1174	11073	0.2070005424	144
1174	11073	0.2070005424	146
1174	11073	0.2070005424	148
1174	11073	0.2070005424	150
1174	11073	0.2070005424	152
1174	11073	0.2070005424	154
1174	11073	0.2070005424	156
1174	11073	0.2070005424	158
1174	11073	0.2070005424	160
1174	11073	0.2070005424	162
1174	11073	0.2070005424	164
1174	11073	0.2070005424	166
1174	11073	0.2070005424	168
1174	11073	0.2070005424	170
1174	11073	0.2070005424	172
1174	11073	0.2070005424	174
1174	11073	0.2070005424	176
1174	11073	0.2070005424	178
1174	11073	0.2070005424	180
1174	11073	0.2070005424	182
1174	11073	0.2070005424	184
1174	11073	0.2070005424	186
1174	11073	0.2070005424	188
1174	11073	0.2070005424	190
1174	11073	0.2070005424	192
1174	20879	0.4070022536	190
1174	20879	0.4070022536	188
1174	20879	0.4070022536	186
1174	20879	0.4070022536	184
1174	20879	0.4070022536	182
1174	20879	0.4070022536	180
1174	20879	0.4070022536	178
1174	20879	0.4070022536	176
1174	20879	0.4070022536	174
1174	20879	0.4070022536	172
1174	20879	0.4070022536	170
1174	20879	0.4070022536	168
1174	20879	0.4070022536	166
1174	20879	0.4070022536	164
1174	20879	0.4070022536	162
1174	20879	0.4070022536	160
1174	20879	0.4070022536	158
1174	20879	0.4070022536	156
1174	20879	0.4070022536	154
1174	20879	0.4070022536	152
1174	20879	0.4070022536	150
1174	20879	0.4070022536	148
1174	20879	0.4070022536	146
1174	20879	0.4070022536	144
1174	20879	0.4070022536	142
1174	20879	0.4070022536	140
1174	20879	0.4070022536	138
1174	20879	0.4070022536	136
1174	20879	0.4070022536	134
1174	20879	0.4070022536	132
1174	20879	0.4070022536	130
1174	20879	0.4070022536	128
1174	20879	0.4070022536	126
1174	20879	0.4070022536	124
1174	20879	0.4070022536	122
1174	20879	0.4070022536	120
1174	20879	0.4070022536	118
1174	20879	0.4070022536	116
1174	20879	0.4070022536	114
1174	20879	0.4070022536	112
1174	20879	0.4070022536	110
1174	20879	0.4070022536	108
1174	20879	0.4070022536	106
1174	20879	0.4070022536	104
1174	20879	0.4070022536	102
1174	20879	0.4070022536	100
1174	20879	0.4070022536	98
1174	20879	0.4070022536	96
1174	20879	0.4070022536	94
1174	20879	0.4070022536	92
1174	20879	0.4070022536	90
1174	20879	0.4070022536	88
1174	20879	0.4070022536	86
1174	20879	0.4070022536	84
1174	20879	0.4070022536	82
1174	20879	0.4070022536	80
1174	20879	0.4070022536	78
1174	20879	0.4070022536	76
1174	20879	0.4070022536	74
1174	20879	0.4070022536	72
1174	20879	0.4070022536	70
1174	20879	0.4070022536	68
1174	20879	0.4070022536	66
1174	20879	0.4070022536	64
1174	20879	0.4070022536	62
1174	20879	0.4070022536	60
1174	20879	0.4070022536	58
1174	20879	0.4070022536	56
1174	20879	0.4070022536	54
1174	20879	0.4070022536	52
1174	20879	0.4070022536	50
1174	20879	0.4070022536	48
1174	20879	0.4070022536	46
1174	20879	0.4070022536	44
1174	20879	0.4070022536	42
1174	20879	0.4070022536	40
1174	20879	0.4070022536	38
1174	20879	0.4070022536	36
1174	20879	0.4070022536	34
1174	20879	0.4070022536	32
1174	20879	0.4070022536	30
1174	20879	0.4070022536	28
1174	20879	0.4070022536	26
1174	20879	0.4070022536	24
1174	20879	0.4070022536	22
1174	20879	0.4070022536	20
1174	20879	0.4070022536	18
1174	20879	0.4070022536	16
1174	20879	0.4070022536	14
1174	20879	0.4070022536	12
1174	20879	0.4070022536	10
1174	20879	0.4070022536	8
1174	20879	0.4070022536	6
1174	20879	0.4070022536	4
1174	20879	0.4070022536	2
1174	20879	0.4070022536	0
1175	597	0.007	2
1175	651	0.0070001912	0
1175	651	0.0070001912	2
1175	651	0.0070001912	4
1175	651	0.0070001912	6
1175	651	0.0070001912	8
1175	651	0.0070001912	10
1175	651	0.0070001912	12
1175	651	0.0070001912	14
1175	651	0.0070001912	16
1175	651	0.0070001912	18
1175	651	0.0070001912	20
1175	651	0.0070001912	22
1175	11073	0.2070005424	20
1175	11073	0.2070005424	18
1175	11073	0.2070005424	16
1175	11073	0.2070005424	14
1175	11073	0.2070005424	12
1175	11073	0.2070005424	10
1175	11073	0.2070005424	8
1175	11073	0.2070005424	6
1175	11073	0.2070005424	4
1175	11073	0.2070005424	2
1175	11073	0.2070005424	0
1175	11073	0.2070005424	2
1175	11073	0.2070005424	4
1175	11073	0.2070005424	6
1175	11073	0.2070005424	8
1175	11073	0.2070005424	10
1175	11073	0.2070005424	12
1175	11073	0.2070005424	14
1175	11073	0.2070005424	16
1175	11073	0.2070005424	18
1175	11073	0.2070005424	20
1175	11073	0.2070005424	22
1175	11073	0.2070005424	24
1175	11073	0.2070005424	26
1175	11073	0.2070005424	28
1175	11073	0.2070005424	30
1175	11073	0.2070005424	32
1175	11073	0.2070005424	34
1175	11073	0.2070005424	36
1175	11073	0.2070005424	38
1175	11073	0.2070005424	40
1175	11073	0.2070005424	42
1175	11073	0.2070005424	44
1175	11073	0.2070005424	46
1175	11073	0.2070005424	48
1175	11073	0.2070005424	50
1175	11073	0.2070005424	52
1175	11073	0.2070005424	54
1175	11073	0.2070005424	56
1175	11073	0.2070005424	58
1175	11073	0.2070005424	60
1175	11073	0.2070005424	62
1175	11073	0.2070005424	64
1175	11073	0.2070005424	66
1175	11073	0.2070005424	68
1175	11073	0.2070005424	70
1175	11073	0.2070005424	72
1175	11073	0.2070005424	74
1175	11073	0.2070005424	76
1175	11073	0.2070005424	78
1175	11073	0.2070005424	80
1175	11073	0.2070005424	82
1175	11073	0.2070005424	84
1175	11073	0.2070005424	86
1175	11073	0.2070005424	88
1175	11073	0.2070005424	90
1175	11073	0.2070005424	92
1175	11073	0.2070005424	94
1175	11073	0.2070005424	96
1175	11073	0.2070005424	98
1175	11073	0.2070005424	100
1175	11073	0.2070005424	102
1175	11073	0.2070005424	104
1175	11073	0.2070005424	106
1175	11073	0.2070005424	108
1175	11073	0.2070005424	110
1175	11073	0.2070005424	112
1175	11073	0.2070005424	114
1175	11073	0.2070005424	116
1175	11073	0.2070005424	118
1175	11073	0.2070005424	120
1175	11073	0.2070005424	122
1175	11073	0.2070005424	124
1175	11073	0.2070005424	126
1175	11073	0.2070005424	128
1175	11073	0.2070005424	130
1175	11073	0.2070005424	132
1175	11073	0.2070005424	134
1175	11073	0.2070005424	136
1175	11073	0.2070005424	138
1175	11073	0.2070005424	140
1175	11073	0.2070005424	142
1175	11073	0.2070005424	144
1175	11073	0.2070005424	146
1175	11073	0.2070005424	148
1175	11073	0.2070005424	150
1175	11073	0.2070005424	152
1175	11073	0.2070005424	154
1175	11073	0.2070005424	156
1175	11073	0.2070005424	158
1175	11073	0.2070005424	160
[...]
788	299658	5.649	0
788	299662	5.649	0
788	299703	5.65	0
788	299743	5.651	0
788	299760	5.651	0
788	299811	5.652	0
788	299827	5.652	0
788	299890	5.653	0
788	299984	5.654	0
788	299988	5.654	0
788	300029	5.655	0
788	300068	5.656	0
788	300085	5.656	0
788	300114	5.657	0
788	300130	5.657	0
788	300193	5.658	0
788	300259	5.659	0
788	300263	5.659	0
788	300352	5.66	0
788	300393	5.661	0
788	300407	5.661	0
788	300438	5.662	0
788	300451	5.662	0
788	300496	5.663	0
788	300560	5.664	0
788	300564	5.664	0
788	300625	5.665	0
788	300715	5.666	0
788	300729	5.666	0
788	300762	5.667	0
788	300775	5.667	0
788	300820	5.668	0
788	300864	5.669	0
788	300868	5.669	0
788	300929	5.67	0
788	300991	5.671	0
788	301005	5.671	0
788	301086	5.672	0
788	301099	5.672	0
788	301144	5.673	0
788	301188	5.674	0
788	301192	5.674	0
788	301233	5.675	0
788	301295	5.676	0
788	301309	5.676	0
788	301362	5.677	0
788	301375	5.677	0
788	301468	5.678	0
788	301512	5.679	0
788	301516	5.679	0
788	301557	5.68	0
788	301597	5.681	0
788	301614	5.681	0
788	301665	5.682	0
788	301681	5.682	0
788	301744	5.683	0
788	301838	5.684	0
788	301842	5.684	0
788	301883	5.685	0
788	301922	5.686	0
788	301939	5.686	0
788	301968	5.687	0
788	301984	5.687	0
788	302047	5.688	0
788	302113	5.689	0
788	302117	5.689	0
788	302206	5.69	0
788	302247	5.691	0
788	302261	5.691	0
788	302292	5.692	0
788	302305	5.692	0
788	302350	5.693	0
788	302414	5.694	0
788	302418	5.694	0
788	302479	5.695	0
788	302569	5.696	0
788	302583	5.696	0
788	302616	5.697	0
788	302629	5.697	0
788	302674	5.698	0
788	302718	5.699	0
788	302722	5.699	0
788	302799	5.7	0
788	302861	5.701	0
788	302875	5.701	0
788	302956	5.702	0
788	302969	5.702	0
788	303014	5.703	0
788	303058	5.704	0
788	303062	5.704	0
788	303103	5.705	0
788	303165	5.706	0
788	303179	5.706	0
788	303232	5.707	0
788	303245	5.707	0
788	303338	5.708	0
788	303382	5.709	0
788	303386	5.709	0
788	303427	5.71	0
788	303467	5.711	0
788	303484	5.711	0
788	303535	5.712	0
788	303551	5.712	0
788	303614	5.713	0
788	303708	5.714	0
788	303712	5.714	0
788	303753	5.715	0
788	303792	5.716	0
788	303809	5.716	0
788	303838	5.717	0
788	303854	5.717	0
788	303917	5.718	0
788	303983	5.719	0
788	303987	5.719	0
788	304076	5.72	0
788	304117	5.721	0
788	304131	5.721	0
788	304162	5.722	0
788	304175	5.722	0
788	304220	5.723	0
788	304284	5.724	0
788	304288	5.724	0
788	304349	5.725	0
788	304439	5.726	0
788	304453	5.726	0
788	304486	5.727	0
788	304499	5.727	0
788	304544	5.728	0
788	304588	5.729	0
788	304592	5.729	0
788	304653	5.73	0
788	304715	5.731	0
788	304729	5.731	0
788	304810	5.732	0
788	304823	5.732	0
788	304868	5.733	0
788	304912	5.734	0
788	304916	5.734	0
788	304957	5.735	0
788	305019	5.736	0
788	305033	5.736	0
788	305086	5.737	0
788	305099	5.737	0
788	305192	5.738	0
788	305236	5.739	0
788	305240	5.739	0
788	305281	5.74	0
788	305321	5.741	0
788	305338	5.741	0
788	305389	5.742	0
788	305405	5.742	0
788	305468	5.743	0
788	305562	5.744	0
788	305566	5.744	0
788	305607	5.745	0
788	305646	5.746	0
788	305663	5.746	0
788	305692	5.747	0
788	305708	5.747	0
788	305771	5.748	0
788	305837	5.749	0
788	305841	5.749	0
788	305930	5.75	0
788	305971	5.751	0
788	305985	5.751	0
788	306016	5.752	0
788	306029	5.752	0
788	306074	5.753	0
788	306138	5.754	0
788	306142	5.754	0
788	306203	5.755	0
788	306293	5.756	0
788	306307	5.756	0
788	306340	5.757	0
788	306353	5.757	0
788	306398	5.758	0
788	306442	5.759	0
788	306446	5.759	0
788	306507	5.76	0
788	306569	5.761	0
788	306583	5.761	0
788	306664	5.762	0
788	306677	5.762	0
788	306722	5.763	0
788	306766	5.764	0
788	306770	5.764	0
788	306811	5.765	0
788	306873	5.766	0
788	306887	5.766	0
788	306940	5.767	0
788	306953	5.767	0
788	307046	5.768	0
788	307090	5.769	0
788	307094	5.769	0
788	307135	5.77	0
788	307175	5.771	0
788	307192	5.771	0
788	307243	5.772	0
788	307259	5.772	0
788	307322	5.773	0
788	307416	5.774	0
788	307420	5.774	0
788	307461	5.775	0
788	307500	5.776	0
788	307517	5.776	0
788	307546	5.777	0
788	307562	5.777	0
788	307625	5.778	0
788	307691	5.779	0
788	307695	5.779	0
788	307784	5.78	0
788	307825	5.781	0
788	307839	5.781	0
788	307870	5.782	0
788	307883	5.782	0
788	307928	5.783	0
788	307992	5.784	0
788	307996	5.784	0
788	308057	5.785	0
788	308147	5.786	0
788	308161	5.786	0
788	308194	5.787	0
788	308207	5.787	0
788	308252	5.788	0
788	308296	5.789	0
788	308300	5.789	0
788	308361	5.79	0
788	308423	5.791	0
788	308437	5.791	0
788	308518	5.792	0
788	308531	5.792	0
788	308576	5.793	0
788	308620	5.794	0
788	308624	5.794	0
788	308665	5.795	0
788	308727	5.796	0
788	308741	5.796	0
788	308794	5.797	0
788	308807	5.797	0
788	308900	5.798	0
788	308944	5.799	0
788	308948	5.799	0
788	309005	5.8	0
788	309045	5.801	0
788	309062	5.801	0
788	309113	5.802	0
788	309129	5.802	0
788	309192	5.803	0
788	309286	5.804	0
788	309290	5.804	0
788	309331	5.805	0
788	309370	5.806	0
788	309387	5.806	0
788	309416	5.807	0
788	309432	5.807	0
788	309495	5.808	0
788	309561	5.809	0
788	309565	5.809	0
788	309654	5.81	0
788	309695	5.811	0
788	309709	5.811	0
788	309740	5.812	0
788	309753	5.812	0
788	309798	5.813	0
788	309862	5.814	0
788	309866	5.814	0
788	309927	5.815	0
788	310017	5.816	0
788	310031	5.816	0
788	310064	5.817	0
788	310077	5.817	0
788	310122	5.818	0
788	310166	5.819	0
788	310170	5.819	0
788	310231	5.82	0
788	310293	5.821	0
788	310307	5.821	0
788	310388	5.822	0
788	310401	5.822	0
788	310446	5.823	0
788	310490	5.824	0
788	310494	5.824	0
788	310535	5.825	0
788	310597	5.826	0
788	310611	5.826	0
788	310664	5.827	0
788	310677	5.827	0
788	310770	5.828	0
788	310814	5.829	0
788	310818	5.829	0
788	310859	5.83	0
788	310899	5.831	0
788	310916	5.831	0
788	310967	5.832	0
788	310983	5.832	0
788	311046	5.833	0
788	311140	5.834	0
788	311144	5.834	0
788	311185	5.835	0
788	311224	5.836	0
788	311241	5.836	0
788	311270	5.837	0
788	311286	5.837	0
788	311349	5.838	0
788	311415	5.839	0
788	311419	5.839	0
788	311508	5.84	0
788	311549	5.841	0
788	311563	5.841	0
788	311594	5.842	0
788	311607	5.842	0
788	311652	5.843	0
788	311716	5.844	0
788	311720	5.844	0
788	311781	5.845	0
788	311871	5.846	0
788	311885	5.846	0
788	311918	5.847	0
788	311931	5.847	0
788	311976	5.848	0
788	312020	5.849	0
788	312024	5.849	0
788	312085	5.85	0
788	312147	5.851	0
788	312161	5.851	0
788	312242	5.852	0
788	312255	5.852	0
788	312300	5.853	0
788	312344	5.854	0
788	312348	5.854	0
788	312389	5.855	0
788	312451	5.856	0
788	312465	5.856	0
788	312518	5.857	0
788	312531	5.857	0
788	312624	5.858	0
788	312668	5.859	0
788	312672	5.859	0
788	312713	5.86	0
788	312753	5.861	0
788	312770	5.861	0
788	312821	5.862	0
788	312837	5.862	0
788	312900	5.863	0
788	312994	5.864	0
788	312998	5.864	0
788	313039	5.865	0
788	313078	5.866	0
788	313095	5.866	0
788	313124	5.867	0
788	313140	5.867	0
788	313203	5.868	0
788	313269	5.869	0
788	313273	5.869	0
788	313362	5.87	0
788	313403	5.871	0
788	313417	5.871	0
788	313448	5.872	0
788	313461	5.872	0
788	313506	5.873	0
788	313570	5.874	0
788	313574	5.874	0
788	313635	5.875	0
788	313725	5.876	0
788	313739	5.876	0
788	313772	5.877	0
788	313785	5.877	0
788	313830	5.878	0
788	313874	5.879	0
788	313878	5.879	0
788	313939	5.88	0
788	314001	5.881	0
788	314015	5.881	0
788	314096	5.882	0
788	314109	5.882	0
788	314154	5.883	0
788	314198	5.884	0
788	314202	5.884	0
788	314243	5.885	0
788	314305	5.886	0
788	314319	5.886	0
788	314372	5.887	0
788	314385	5.887	0
788	314478	5.888	0
788	314522	5.889	0
788	314526	5.889	0
788	314567	5.89	0
788	314607	5.891	0
788	314624	5.891	0
788	314675	5.892	0
788	314691	5.892	0
788	314754	5.893	0
788	314848	5.894	0
788	314852	5.894	0
788	314893	5.895	0
788	314932	5.896	0
788	314949	5.896	0
788	314978	5.897	0
788	314994	5.897	0
788	315057	5.898	0
788	315123	5.899	0
788	315127	5.899	0
788	315232	5.9	0
788	315273	5.901	0
788	315287	5.901	0
788	315318	5.902	0
788	315331	5.902	0
788	315376	5.903	0
788	315440	5.904	0
788	315444	5.904	0
788	315505	5.905	0
788	315595	5.906	0
788	315609	5.906	0
788	315642	5.907	0
788	315655	5.907	0
788	315700	5.908	0
788	315744	5.909	0
788	315748	5.909	0
788	315809	5.91	0
788	315871	5.911	0
788	315885	5.911	0
788	315966	5.912	0
788	315979	5.912	0
788	316024	5.913	0
788	316068	5.914	0
788	316072	5.914	0
788	316113	5.915	0
788	316175	5.916	0
788	316189	5.916	0
788	316242	5.917	0
788	316255	5.917	0
788	316348	5.918	0
788	316392	5.919	0
788	316396	5.919	0
788	316437	5.92	0
788	316477	5.921	0
788	316494	5.921	0
788	316545	5.922	0
788	316561	5.922	0
788	316624	5.923	0
788	316718	5.924	0
788	316722	5.924	0
788	316763	5.925	0
788	316802	5.926	0
788	316819	5.926	0
788	316848	5.927	0
788	316864	5.927	0
788	316927	5.928	0
788	316993	5.929	0
788	316997	5.929	0
788	317086	5.93	0
788	317127	5.931	0
788	317141	5.931	0
788	317172	5.932	0
788	317185	5.932	0
788	317230	5.933	0
788	317294	5.934	0
788	317298	5.934	0
788	317359	5.935	0
788	317449	5.936	0
788	317463	5.936	0
788	317496	5.937	0
788	317509	5.937	0
788	317554	5.938	0
788	317598	5.939	0
788	317602	5.939	0
788	317663	5.94	0
788	317725	5.941	0
788	317739	5.941	0
788	317820	5.942	0
788	317833	5.942	0
788	317878	5.943	0
788	317922	5.944	0
788	317926	5.944	0
788	317967	5.945	0
788	318029	5.946	0
788	318043	5.946	0
788	318096	5.947	0
788	318109	5.947	0
788	318202	5.948	0
788	318246	5.949	0
788	318250	5.949	0
788	318291	5.95	0
788	318331	5.951	0
788	318348	5.951	0
788	318399	5.952	0
788	318415	5.952	0
788	318478	5.953	0
788	318572	5.954	0
788	318576	5.954	0
788	318617	5.955	0
788	318656	5.956	0
788	318673	5.956	0
788	318702	5.957	0
788	318718	5.957	0
788	318781	5.958	0
788	318847	5.959	0
788	318851	5.959	0
788	318940	5.96	0
788	318981	5.961	0
788	318995	5.961	0
788	319026	5.962	0
788	319039	5.962	0
788	319084	5.963	0
788	319148	5.964	0
788	319152	5.964	0
788	319213	5.965	0
788	319303	5.966	0
788	319317	5.966	0
788	319350	5.967	0
788	319363	5.967	0
788	319408	5.968	0
788	319452	5.969	0
788	319456	5.969	0
788	319517	5.97	0
788	319579	5.971	0
788	319593	5.971	0
788	319674	5.972	0
788	319687	5.972	0
788	319732	5.973	0
788	319776	5.974	0
788	319780	5.974	0
788	319821	5.975	0
788	319883	5.976	0
788	319897	5.976	0
788	319950	5.977	0
788	319963	5.977	0
788	320056	5.978	0
788	320100	5.979	0
788	320104	5.979	0
788	320145	5.98	0
788	320185	5.981	0
788	320202	5.981	0
788	320253	5.982	0
788	320269	5.982	0
788	320332	5.983	0
788	320426	5.984	0
788	320430	5.984	0
788	320471	5.985	0
788	320510	5.986	0
788	320527	5.986	0
788	320556	5.987	0
788	320572	5.987	0
788	320635	5.988	0
788	320701	5.989	0
788	320705	5.989	0
788	320794	5.99	0
788	320835	5.991	0
788	320849	5.991	0
788	320880	5.992	0
788	320893	5.992	0
788	320938	5.993	0
788	321002	5.994	0
788	321006	5.994	0
788	321067	5.995	0
788	321157	5.996	0
788	321171	5.996	0
788	321204	5.997	0
788	321217	5.997	0
788	321262	5.998	0
788	321306	5.999	0
788	321310	5.999	0
788	321387	6	0
788	321449	6.001	0
788	321463	6.001	0
788	321544	6.002	0
788	321557	6.002	0
788	321602	6.003	0
788	321646	6.004	0
788	321650	6.004	0
788	321691	6.005	0
788	321753	6.006	0
788	321767	6.006	0
788	321820	6.007	0
788	321833	6.007	0
788	321926	6.008	0
788	321970	6.009	0
788	321974	6.009	0
788	322015	6.01	0
788	322055	6.011	0
788	322072	6.011	0
788	322123	6.012	0
788	322139	6.012	0
788	322202	6.013	0
788	322296	6.014	0
788	322300	6.014	0
788	322341	6.015	0
788	322380	6.016	0
788	322397	6.016	0
788	322426	6.017	0
788	322442	6.017	0
788	322505	6.018	0
788	322571	6.019	0
788	322575	6.019	0
788	322664	6.02	0
788	322705	6.021	0
788	322719	6.021	0
788	322750	6.022	0
788	322763	6.022	0
788	322808	6.023	0
788	322872	6.024	0
788	322876	6.024	0
788	322937	6.025	0
788	323027	6.026	0
788	323041	6.026	0
788	323074	6.027	0
788	323087	6.027	0
788	323132	6.028	0
788	323176	6.029	0
788	323180	6.029	0
788	323241	6.03	0
788	323303	6.031	0
788	323317	6.031	0
788	323398	6.032	0
788	323411	6.032	0
788	323456	6.033	0
788	323500	6.034	0
788	323504	6.034	0
788	323545	6.035	0
788	323607	6.036	0
788	323621	6.036	0
788	323674	6.037	0
788	323687	6.037	0
788	323780	6.038	0
788	323824	6.039	0
788	323828	6.039	0
788	323869	6.04	0
788	323909	6.041	0
788	323926	6.041	0
788	323977	6.042	0
788	323993	6.042	0
788	324056	6.043	0
788	324150	6.044	0
788	324154	6.044	0
788	324195	6.045	0
788	324234	6.046	0
788	324251	6.046	0
788	324280	6.047	0
788	324296	6.047	0
788	324359	6.048	0
788	324425	6.049	0
788	324429	6.049	0
788	324518	6.05	0
788	324559	6.051	0
788	324573	6.051	0
788	324604	6.052	0
788	324617	6.052	0
788	324662	6.053	0
788	324726	6.054	0
788	324730	6.054	0
788	324791	6.055	0
788	324881	6.056	0
788	324895	6.056	0
788	324928	6.057	0
788	324941	6.057	0
788	324986	6.058	0
788	325030	6.059	0
788	325034	6.059	0
788	325095	6.06	0
788	325157	6.061	0
788	325171	6.061	0
788	325252	6.062	0
788	325265	6.062	0
788	325310	6.063	0
788	325354	6.064	0
788	325358	6.064	0
788	325399	6.065	0
788	325461	6.066	0
788	325475	6.066	0
788	325528	6.067	0
788	325541	6.067	0
788	325634	6.068	0
788	325678	6.069	0
788	325682	6.069	0
788	325723	6.07	0
788	325763	6.071	0
788	325780	6.071	0
788	325831	6.072	0
788	325847	6.072	0
788	325910	6.073	0
788	326004	6.074	0
788	326008	6.074	0
788	326049	6.075	0
788	326088	6.076	0
788	326105	6.076	0
788	326134	6.077	0
788	326150	6.077	0
788	326213	6.078	0
788	326279	6.079	0
788	326283	6.079	0
788	326372	6.08	0
788	326413	6.081	0
788	326427	6.081	0
788	326458	6.082	0
788	326471	6.082	0
788	326516	6.083	0
788	326580	6.084	0
788	326584	6.084	0
788	326645	6.085	0
788	326735	6.086	0
788	326749	6.086	0
788	326782	6.087	0
788	326795	6.087	0
788	326840	6.088	0
788	326884	6.089	0
788	326888	6.089	0
788	326949	6.09	0
788	327011	6.091	0
788	327025	6.091	0
788	327106	6.092	0
788	327119	6.092	0
788	327164	6.093	0
788	327208	6.094	0
788	327212	6.094	0
788	327253	6.095	0
788	327315	6.096	0
788	327329	6.096	0
788	327382	6.097	0
788	327395	6.097	0
788	327488	6.098	0
788	327532	6.099	0
788	327536	6.099	0
788	327593	6.1	0
788	327633	6.101	0
788	327650	6.101	0
788	327701	6.102	0
788	327717	6.102	0
788	327780	6.103	0
788	327874	6.104	0
788	327878	6.104	0
788	327919	6.105	0
788	327975	6.106	0
788	328018	6.107	0
792	2399	0.038	1
792	2726	0.043	2
792	3006	0.048	3
792	3351	0.053	4
792	3874	0.058	5
792	5031	0.079	6
792	5291	0.084	7
792	5551	0.089	8
792	5846	0.094	9
793	1132	0.017	1
793	1404	0.022	2
793	1706	0.027	3
793	2013	0.032	4
793	2328	0.037	5
793	2463	0.039	6
793	2626	0.042	7
793	2628	0.042	8
793	2795	0.044	9
793	2931	0.047	10
793	2933	0.047	11
793	3117	0.049	12
793	3285	0.052	13
793	3287	0.052	14
793	3431	0.054	15
793	3744	0.057	16
793	3746	0.057	17
793	3913	0.059	18
793	3974	0.06	19
793	4367	0.066	20
807	0	0	1
813	971	0.013169782835	44
813	136166	3.013169782835	44
816	971	0.013169782835	45
816	136166	3.013169782835	45
817	974	0.013169782835	45
817	1179	0.018	0
817	1431	0.023	0
817	1491	0.024	47
817	136169	3.013169782835	45
817	136417	3.018	0
817	136690	3.023	0
817	136757	3.024	47
818	1098	0.016	0
818	1127	0.017	0
818	1359	0.021	0
818	1399	0.022	0
818	1437	0.023	0
818	1439	0.023	0
818	1747	0.028	0
818	1751	0.028	0
818	1800	0.029	0
818	136328	3.016	0
818	136363	3.017	0
818	136604	3.021	0
818	136649	3.022	0
818	136698	3.023	0
818	136700	3.023	0
818	137015	3.028	0
818	137019	3.028	0
818	137080	3.029	0
819	1175	0.018	0
819	1427	0.023	0
819	1487	0.024	0
819	136413	3.018	0
819	136686	3.023	0
819	136753	3.024	0
820	1005	0.014	0
820	1182	0.018	0
820	1264	0.019	0
820	1434	0.023	0
820	1494	0.024	0
820	136199	3.014	0
820	136420	3.018	0
820	136471	3.019	0
820	136695	3.023	0
820	136760	3.024	0
839	0	0	1
1319	879	0.012270864309	7504
1319	136105	3.012270864309	7504
1320	879	0.012270864309	7504
1320	136105	3.012270864309	7504
1322	879	0.012270864309	0
1322	136105	3.012270864309	0
1333	879	0.012270864309	0
1333	136105	3.012270864309	0
1343	968	0.013169782835	7504
1343	136163	3.013169782835	7504
1344	968	0.013169782835	7504
1344	136163	3.013169782835	7504
1346	968	0.013169782835	0
1346	136163	3.013169782835	0
1357	968	0.013169782835	0
1357	136163	3.013169782835	0
1367	976	0.013528948517	7504
1367	136170	3.013528948517	7504
1368	976	0.013528948517	7504
1368	136170	3.013528948517	7504
1370	976	0.013528948517	0
1370	136170	3.013528948517	0
1381	976	0.013528948517	0
1381	136170	3.013528948517	0
1391	1364	0.021843716542	7504
1391	136608	3.021843716542	7504
1392	1364	0.021843716542	7504
1392	136608	3.021843716542	7504
1394	1364	0.021843716542	0
1394	136608	3.021843716542	0
1405	1364	0.021843716542	0
1405	136608	3.021843716542	0
1415	1505	0.024352218178	7504
1415	136773	3.024352218178	7504
1416	1505	0.024352218178	7504
1416	136773	3.024352218178	7504
1418	1505	0.024352218178	0
1418	136773	3.024352218178	0
1429	1505	0.024352218178	0
1429	136773	3.024352218178	0
1439	1604	0.025271030879	7504
1439	136835	3.025271030879	7504
1440	1604	0.025271030879	7504
1440	136835	3.025271030879	7504
1442	1604	0.025271030879	0
1442	136835	3.025271030879	0
1453	1604	0.025271030879	0
1453	136835	3.025271030879	0
1463	2015	0.032546852513	7504
1463	137287	3.032546852513	7504
1464	2015	0.032546852513	7504
1464	137287	3.032546852513	7504
1466	2015	0.032546852513	0
1466	137287	3.032546852513	0
1477	2015	0.032546852513	0
1477	137287	3.032546852513	0
1487	2107	0.034129833705	7504
1487	137386	3.034129833705	7504
1488	2107	0.034129833705	7504
1488	137386	3.034129833705	7504
1490	2107	0.034129833705	0
1490	137386	3.034129833705	0
1501	2107	0.034129833705	0
1501	137386	3.034129833705	0
1511	2115	0.034439526021	7504
1511	137393	3.034439526021	7504
1512	2115	0.034439526021	7504
1512	137393	3.034439526021	7504
1514	2115	0.034439526021	0
1514	137393	3.034439526021	0
1525	2115	0.034439526021	0
1525	137393	3.034439526021	0
1535	2330	0.037261432968	7504
1535	137570	3.037261432968	7504
1536	2330	0.037261432968	7504
1536	137570	3.037261432968	7504
1538	2330	0.037261432968	0
1538	137570	3.037261432968	0
1549	2330	0.037261432968	0
1549	137570	3.037261432968	0
1559	2942	0.047532676856	7504
1559	138189	3.047532676856	7504
1560	2942	0.047532676856	7504
1560	138189	3.047532676856	7504
1562	2942	0.047532676856	0
1562	138189	3.047532676856	0
1573	2942	0.047532676856	0
1573	138189	3.047532676856	0
1583	3013	0.048413756283	7504
1583	138259	3.048413756283	7504
1584	3013	0.048413756283	7504
1584	138259	3.048413756283	7504
1586	3013	0.048413756283	0
1586	138259	3.048413756283	0
1597	3013	0.048413756283	0
1597	138259	3.048413756283	0
1607	3231	0.051566809383	7504
1607	138461	3.051566809383	7504
1608	3231	0.051566809383	7504
1608	138461	3.051566809383	7504
1610	3231	0.051566809383	0
1610	138461	3.051566809383	0
1621	3231	0.051566809383	0
1621	138461	3.051566809383	0
1631	3289	0.05273845314	7504
1631	138515	3.05273845314	7504
1632	3289	0.05273845314	7504
1632	138515	3.05273845314	7504
1634	3289	0.05273845314	0
1634	138515	3.05273845314	0
1645	3289	0.05273845314	0
1645	138515	3.05273845314	0
1655	3297	0.052847558425	7504
1655	138522	3.052847558425	7504
1656	3297	0.052847558425	7504
1656	138522	3.052847558425	7504
1658	3297	0.052847558425	0
1658	138522	3.052847558425	0
1669	3297	0.052847558425	0
1669	138522	3.052847558425	0
1679	3829	0.057084039294	7504
1679	138885	3.057084039294	7504
1680	3829	0.057084039294	7504
1680	138885	3.057084039294	7504
1682	3829	0.057084039294	0
1682	138885	3.057084039294	0
1693	3829	0.057084039294	0
1693	138885	3.057084039294	0
1703	4048	0.061955560849	7504
1703	139166	3.061955560849	7504
1704	4048	0.061955560849	7504
1704	139166	3.061955560849	7504
1706	4048	0.061955560849	0
1706	139166	3.061955560849	0
1717	4048	0.061955560849	0
1717	139166	3.061955560849	0
1727	4278	0.064453871725	7504
1727	139411	3.064453871725	7504
1728	4278	0.064453871725	7504
1728	139411	3.064453871725	7504
1730	4278	0.064453871725	0
1730	139411	3.064453871725	0
1741	4278	0.064453871725	0
1741	139411	3.064453871725	0
1751	4868	0.075361895796	7504
1751	140113	3.075361895796	7504
1752	4868	0.075361895796	7504
1752	140113	3.075361895796	7504
1754	4868	0.075361895796	0
1754	140113	3.075361895796	0
1765	4868	0.075361895796	0
1765	140113	3.075361895796	0
1775	5648	0.091364573385	7504
1775	141081	3.091364573385	7504
1776	5648	0.091364573385	7504
1776	141081	3.091364573385	7504
1778	5648	0.091364573385	0
1778	141081	3.091364573385	0
1789	5648	0.091364573385	0
1789	141081	3.091364573385	0
