version 2
run CAIN-76-20200508-16:29:21-12751
attr configname CAIN
attr datetime 20200508-16:29:21
attr dist 200
attr experiment CAIN
attr extAllocType "\"FULL_ALLOC\""
attr inifile omnetpp.ini
attr iterationvars "$numUe=20, $pwr=-50, $dist=200, $mob=\"./movements/RWPRPGM-0.5.movements\", $extAllocType=\"FULL_ALLOC\""
attr iterationvars2 "$numUe=20, $pwr=-50, $dist=200, $mob=\"./movements/RWPRPGM-0.5.movements\", $extAllocType=\"FULL_ALLOC\", $repetition=1"
attr measurement "$numUe=20, $pwr=-50, $dist=200, $mob=\"./movements/RWPRPGM-0.5.movements\", $extAllocType=\"FULL_ALLOC\""
attr mob "\"./movements/RWPRPGM-0.5.movements\""
attr network lte.simulations.networks.CAIN
attr numUe 20
attr processid 12751
attr pwr -50
attr repetition 1
attr replication #1
attr resultdir results
attr runnumber 76
attr seedset 1
param **.**.amcMode "\"AUTO\""
param **.amcMode "\"D2D\""
param **.cainNetwork true
param **.channelControl.alpha 1.0
param **.channelControl.carrierFrequency 2100e+6Hz
param **.channelControl.pMax 10W
param **.d2dCqi 7
param **.deployer.numRbDl 50
param **.deployer.numRbUl 50
param **.distThresh ${dist=200}
param **.fbDelay 1
param **.feedbackComputation "xmldoc(\"config_channel.xml\")"
param **.mobility.constraintAreaMaxX 1000m
param **.mobility.constraintAreaMaxY 1000m
param **.mobility.constraintAreaMaxZ 0m
param **.mobility.constraintAreaMinX 0m
param **.mobility.constraintAreaMinY 0m
param **.mobility.constraintAreaMinZ 0m
param **.nic.phy.channelModel "xmldoc(\"config_channel.xml\")"
param **.numBands 50
param **.pwrThresh "${pwr= -50}"
param **.qtdThresh 3
param **.rbAllocationType "\"localized\""
param **.routingRecorder.enabled false
param **.tcpApp[*].tClose -1s
param **.ueD2DTx[*].mobility.changeAngleBy "normal(0deg, 30deg)"
param **.ueD2DTx[*].mobility.changeInterval "normal(5s, 0.1s)"
param **.ueD2DTx[*].mobility.nodeId -1
param **.ueD2DTx[*].mobility.speed "normal(2mps, 0.01mps)"
param **.ueD2DTx[*].mobility.traceFile "${mob=\"./movements/RWP-0.0.movements\",\"./movements/RWP-0.5.movements\",\"./movements/RPGM-0.0.movements\",\"./movements/RPGM-0.5.movements\",\"./movements/RWPRPGM-0.0.movements\",\"./movements/RWPRPGM-0.5.movements\"}"
param **.ueD2DTx[*].mobilityType "\"BonnMotionMobility\""
param **.usePreconfiguredTxParams false
param *.eNodeB*.numX2Apps 1
param *.eNodeB*.x2App[*].server.localPort "5000 + ancestorIndex(1)"
param *.eNodeB.d2dCapable false
param *.eNodeB.mobility.initFromDisplayString false
param *.eNodeB.mobility.initialX 300m
param *.eNodeB.mobility.initialY 300m
param *.eNodeB.nic.phy.enableD2DCqiReporting true
param *.eNodeB.txPower 19952.62315mw
param *.eNodeB.x2App[0].client.connectAddress "\"eNodeB1%x2ppp0\""
param *.eNodeB1.d2dCapable true
param *.eNodeB1.mobility.initFromDisplayString false
param *.eNodeB1.mobility.initialX 700m
param *.eNodeB1.mobility.initialY 300m
param *.eNodeB1.nic.phy.enableD2DCqiReporting true
param *.eNodeB1.txPower 19952.62315mw
param *.eNodeB1.x2App[0].client.connectAddress "\"eNodeB%x2ppp0\""
param *.extCell[*].bandAllocationType "${extAllocType=\"FULL_ALLOC\",\"RANDOM_ALLOC\",\"CONTIGUOUS_ALLOC\"}"
param *.extCell[*].bandUtilization 0.5
param *.extCell[*].txDirection "\"ANISOTROPIC\""
param *.extCell[*].txPower 20
param *.extCell[0].position_x 100m
param *.extCell[0].position_y 600m
param *.extCell[0].txAngle 315
param *.extCell[1].position_x 600m
param *.extCell[1].position_y 600m
param *.extCell[1].txAngle 225
param *.numExtCells 2
param *.numUeCell 0
param *.numUeD2DRx 1
param *.numUeD2DTx 1
param *.ue*.macCellId 1
param *.ue*.masterId 1
param *.ue*.mobility.initFromDisplayString false
param *.ue*[0].macCellId 1
param *.ue*[0].masterId 1
param *.ue*[0].mobility.initFromDisplayString false
param *.ueD2D*.numTcpApps 1
param *.ueD2D*[*].d2dCapable true
param *.ueD2D*[0].d2dCapable false
param *.ueD2D*[0].numTcpApps 1
param *.ueD2DRx[0].mobility.initialX 310m
param *.ueD2DRx[0].mobility.initialY 350m
param *.ueD2DRx[0].tcpApp[*].localPort 1000
param *.ueD2DRx[0].tcpApp[*].typename "\"TCPSinkApp\""
param *.ueD2DTx*.nic.d2dPeerAddresses "\"ueD2DTx[1]\""
param *.ueD2DTx*.tcpApp[*].connectAddress "\"ueD2DTx[0]\""
param *.ueD2DTx*.tcpApp[*].localAddress "\"ueD2DTx\""
param *.ueD2DTx*.tcpApp[*].localPort 1000
param *.ueD2DTx*.tcpApp[*].sendBytes 1GiB
param *.ueD2DTx*.tcpApp[*].typename "\"TCPSessionApp\""
param *.ueD2DTx*.tcpApp[0].active true
param *.ueD2DTx*.tcpApp[0].connectPort 1000
param *.ueD2DTx*.tcpApp[0].tOpen uniform(0.010s,0.1s)
param *.ueD2DTx*.tcpApp[0].tSend uniform(0.15s,0.5s)
param *.ueD2DTx[0].mobility.initialX 290m
param *.ueD2DTx[0].mobility.initialY 350m
param *.ueD2DTx[0].tcpApp[*].localPort 1000
param *.ueD2DTx[0].tcpApp[*].sendBytes 1GiB
param *.ueD2DTx[0].tcpApp[*].typename "\"TCPSessionApp\""
param *.ueD2DTx[0].tcpApp[0].active true
param *.ueD2DTx[0].tcpApp[0].connectAddress "\"ueD2DRx[0]\""
param *.ueD2DTx[0].tcpApp[0].connectPort 1000
param *.ueD2DTx[0].tcpApp[0].localAddress "\"ueD2DTx[0]\""
param *.ueD2DTx[0].tcpApp[0].tOpen uniform(0.010s,0.1s)
param *.ueD2DTx[0].tcpApp[0].tSend uniform(0.15s,0.5s)
param *.ueD2DTx[1].mobility.initialX 690m
param *.ueD2DTx[1].mobility.initialY 250m

vector 8  CAIN.server.ppp[0].queue  queueLength:vector  ETV
attr interpolationmode  sample-hold
attr title  "queue length, vector"
vector 9  CAIN.server.ppp[0].ppp  txState:vector  ETV
attr interpolationmode  sample-hold
attr title  "tx state, vector"
vector 24  CAIN.router.ppp[0].queue  queueLength:vector  ETV
attr interpolationmode  sample-hold
attr title  "queue length, vector"
vector 25  CAIN.router.ppp[0].ppp  txState:vector  ETV
attr interpolationmode  sample-hold
attr title  "tx state, vector"
vector 35  CAIN.router.ppp[1].queue  queueLength:vector  ETV
attr interpolationmode  sample-hold
attr title  "queue length, vector"
vector 36  CAIN.router.ppp[1].ppp  txState:vector  ETV
attr interpolationmode  sample-hold
attr title  "tx state, vector"
vector 56  CAIN.pgw.ppp[0].queue  queueLength:vector  ETV
attr interpolationmode  sample-hold
attr title  "queue length, vector"
vector 57  CAIN.pgw.ppp[0].ppp  txState:vector  ETV
attr interpolationmode  sample-hold
attr title  "tx state, vector"
vector 67  CAIN.pgw.ppp[1].queue  queueLength:vector  ETV
attr interpolationmode  sample-hold
attr title  "queue length, vector"
vector 68  CAIN.pgw.ppp[1].ppp  txState:vector  ETV
attr interpolationmode  sample-hold
attr title  "tx state, vector"
vector 78  CAIN.pgw.pppInterface.queue  queueLength:vector  ETV
attr interpolationmode  sample-hold
attr title  "queue length, vector"
vector 79  CAIN.pgw.pppInterface.ppp  txState:vector  ETV
attr interpolationmode  sample-hold
attr title  "tx state, vector"
vector 120  CAIN.eNodeB.pppIf.queue  queueLength:vector  ETV
attr interpolationmode  sample-hold
attr title  "queue length, vector"
vector 121  CAIN.eNodeB.pppIf.ppp  txState:vector  ETV
attr interpolationmode  sample-hold
attr title  "tx state, vector"
vector 131  CAIN.eNodeB.x2ppp[0].queue  queueLength:vector  ETV
attr interpolationmode  sample-hold
attr title  "queue length, vector"
vector 132  CAIN.eNodeB.x2ppp[0].ppp  txState:vector  ETV
attr interpolationmode  sample-hold
attr title  "tx state, vector"
vector 178  CAIN.eNodeB1.pppIf.queue  queueLength:vector  ETV
attr interpolationmode  sample-hold
attr title  "queue length, vector"
vector 179  CAIN.eNodeB1.pppIf.ppp  txState:vector  ETV
attr interpolationmode  sample-hold
attr title  "tx state, vector"
vector 189  CAIN.eNodeB1.x2ppp[0].queue  queueLength:vector  ETV
attr interpolationmode  sample-hold
attr title  "queue length, vector"
vector 190  CAIN.eNodeB1.x2ppp[0].ppp  txState:vector  ETV
attr interpolationmode  sample-hold
attr title  "tx state, vector"
vector 231  CAIN.ueD2DTx[0].nic.phy  servingCell:vector  ETV
attr source  servingCell
attr title  "ID of the serving eNodeB for the UE, vector"
attr unit  ""
vector 263  CAIN.ueD2DTx[1].nic.phy  servingCell:vector  ETV
attr source  servingCell
attr title  "ID of the serving eNodeB for the UE, vector"
attr unit  ""
vector 295  CAIN.ueD2DTx[2].nic.phy  servingCell:vector  ETV
attr source  servingCell
attr title  "ID of the serving eNodeB for the UE, vector"
attr unit  ""
vector 327  CAIN.ueD2DTx[3].nic.phy  servingCell:vector  ETV
attr source  servingCell
attr title  "ID of the serving eNodeB for the UE, vector"
attr unit  ""
vector 359  CAIN.ueD2DTx[4].nic.phy  servingCell:vector  ETV
attr source  servingCell
attr title  "ID of the serving eNodeB for the UE, vector"
attr unit  ""
vector 391  CAIN.ueD2DTx[5].nic.phy  servingCell:vector  ETV
attr source  servingCell
attr title  "ID of the serving eNodeB for the UE, vector"
attr unit  ""
vector 423  CAIN.ueD2DTx[6].nic.phy  servingCell:vector  ETV
attr source  servingCell
attr title  "ID of the serving eNodeB for the UE, vector"
attr unit  ""
vector 455  CAIN.ueD2DTx[7].nic.phy  servingCell:vector  ETV
attr source  servingCell
attr title  "ID of the serving eNodeB for the UE, vector"
attr unit  ""
vector 487  CAIN.ueD2DTx[8].nic.phy  servingCell:vector  ETV
attr source  servingCell
attr title  "ID of the serving eNodeB for the UE, vector"
attr unit  ""
vector 519  CAIN.ueD2DTx[9].nic.phy  servingCell:vector  ETV
attr source  servingCell
attr title  "ID of the serving eNodeB for the UE, vector"
attr unit  ""
vector 551  CAIN.ueD2DTx[10].nic.phy  servingCell:vector  ETV
attr source  servingCell
attr title  "ID of the serving eNodeB for the UE, vector"
attr unit  ""
vector 583  CAIN.ueD2DTx[11].nic.phy  servingCell:vector  ETV
attr source  servingCell
attr title  "ID of the serving eNodeB for the UE, vector"
attr unit  ""
vector 615  CAIN.ueD2DTx[12].nic.phy  servingCell:vector  ETV
attr source  servingCell
attr title  "ID of the serving eNodeB for the UE, vector"
attr unit  ""
vector 647  CAIN.ueD2DTx[13].nic.phy  servingCell:vector  ETV
attr source  servingCell
attr title  "ID of the serving eNodeB for the UE, vector"
attr unit  ""
vector 679  CAIN.ueD2DTx[14].nic.phy  servingCell:vector  ETV
attr source  servingCell
attr title  "ID of the serving eNodeB for the UE, vector"
attr unit  ""
vector 711  CAIN.ueD2DTx[15].nic.phy  servingCell:vector  ETV
attr source  servingCell
attr title  "ID of the serving eNodeB for the UE, vector"
attr unit  ""
vector 743  CAIN.ueD2DTx[16].nic.phy  servingCell:vector  ETV
attr source  servingCell
attr title  "ID of the serving eNodeB for the UE, vector"
attr unit  ""
vector 775  CAIN.ueD2DTx[17].nic.phy  servingCell:vector  ETV
attr source  servingCell
attr title  "ID of the serving eNodeB for the UE, vector"
attr unit  ""
vector 807  CAIN.ueD2DTx[18].nic.phy  servingCell:vector  ETV
attr source  servingCell
attr title  "ID of the serving eNodeB for the UE, vector"
attr unit  ""
vector 839  CAIN.ueD2DTx[19].nic.phy  servingCell:vector  ETV
attr source  servingCell
attr title  "ID of the serving eNodeB for the UE, vector"
attr unit  ""
vector 863  CAIN.eNodeB.sctp  "Throughput of Association 3"  ETV
vector 885  CAIN.eNodeB1.sctp  "Throughput of Association 4"  ETV
vector 907  CAIN.eNodeB.sctp  "Throughput of Association 1"  ETV
vector 927  CAIN.eNodeB.sctp  "Fast Recovery State 1:10.0.5.2"  ETV
vector 956  CAIN.eNodeB1.sctp  "Throughput of Association 2"  ETV
vector 976  CAIN.eNodeB1.sctp  "Fast Recovery State 2:10.0.5.1"  ETV
vector 128  CAIN.eNodeB.x2ppp[0].queue  rcvdPk:vector(packetBytes)  ETV
attr interpolationmode  none
attr title  "received packets, vector(packetBytes)"
vector 130  CAIN.eNodeB.x2ppp[0].queue  queueingTime:vector  ETV
attr interpolationmode  none
attr title  "queueing time, vector"
vector 186  CAIN.eNodeB1.x2ppp[0].queue  rcvdPk:vector(packetBytes)  ETV
attr interpolationmode  none
attr title  "received packets, vector(packetBytes)"
vector 188  CAIN.eNodeB1.x2ppp[0].queue  queueingTime:vector  ETV
attr interpolationmode  none
attr title  "queueing time, vector"
vector 137  CAIN.eNodeB.x2ppp[0].ppp  rcvdPkFromHL:vector(packetBytes)  ETV
attr interpolationmode  none
attr source  packetReceivedFromUpper
attr title  "packets received from higher layer, vector(packetBytes)"
vector 133  CAIN.eNodeB.x2ppp[0].ppp  txPk:vector(packetBytes)  ETV
attr interpolationmode  none
attr source  packetSentToLower
attr title  "packets transmitted, vector(packetBytes)"
vector 195  CAIN.eNodeB1.x2ppp[0].ppp  rcvdPkFromHL:vector(packetBytes)  ETV
attr interpolationmode  none
attr source  packetReceivedFromUpper
attr title  "packets received from higher layer, vector(packetBytes)"
vector 191  CAIN.eNodeB1.x2ppp[0].ppp  txPk:vector(packetBytes)  ETV
attr interpolationmode  none
attr source  packetSentToLower
attr title  "packets transmitted, vector(packetBytes)"
vector 192  CAIN.eNodeB1.x2ppp[0].ppp  rxPkOk:vector(packetBytes)  ETV
attr interpolationmode  none
attr source  rxPkOk
attr title  "packets received OK, vector(packetBytes)"
vector 196  CAIN.eNodeB1.x2ppp[0].ppp  passedUpPk:vector(packetBytes)  ETV
attr interpolationmode  none
attr source  packetSentToUpper
attr title  "packets passed to higher layer, vector(packetBytes)"
vector 134  CAIN.eNodeB.x2ppp[0].ppp  rxPkOk:vector(packetBytes)  ETV
attr interpolationmode  none
attr source  rxPkOk
attr title  "packets received OK, vector(packetBytes)"
vector 138  CAIN.eNodeB.x2ppp[0].ppp  passedUpPk:vector(packetBytes)  ETV
attr interpolationmode  none
attr source  packetSentToUpper
attr title  "packets passed to higher layer, vector(packetBytes)"
vector 1005  CAIN.eNodeB1.sctp  "Throughput of Association 4"  ETV
vector 882  CAIN.eNodeB1.sctp  "Peer Rwnd 4"  ETV
vector 1025  CAIN.eNodeB1.sctp  "Fast Recovery State 5:10.0.4.1"  ETV
vector 1052  CAIN.eNodeB1.sctp  "Fast Recovery State 5:10.0.2.2"  ETV
vector 1079  CAIN.eNodeB1.sctp  "Fast Recovery State 5:10.0.5.1"  ETV
vector 1108  CAIN.eNodeB.sctp  "Throughput of Association 3"  ETV
vector 860  CAIN.eNodeB.sctp  "Peer Rwnd 3"  ETV
vector 1128  CAIN.eNodeB.sctp  "Fast Recovery State 6:10.0.4.2"  ETV
vector 1155  CAIN.eNodeB.sctp  "Fast Recovery State 6:10.0.3.2"  ETV
vector 1182  CAIN.eNodeB.sctp  "Fast Recovery State 6:10.0.5.2"  ETV
vector 904  CAIN.eNodeB.sctp  "Peer Rwnd 1"  ETV
vector 1209  CAIN.eNodeB.sctp  "Fast Recovery State 1:10.0.4.2"  ETV
vector 1236  CAIN.eNodeB.sctp  "Fast Recovery State 1:10.0.3.2"  ETV
vector 953  CAIN.eNodeB1.sctp  "Peer Rwnd 2"  ETV
vector 1263  CAIN.eNodeB1.sctp  "Fast Recovery State 2:10.0.4.1"  ETV
vector 1290  CAIN.eNodeB1.sctp  "Fast Recovery State 2:10.0.2.2"  ETV
vector 1035  CAIN.eNodeB1.sctp  "Slow Start Threshold 5:10.0.2.2"  ETV
vector 1036  CAIN.eNodeB1.sctp  "Congestion Window 5:10.0.2.2"  ETV
vector 1037  CAIN.eNodeB1.sctp  "Bandwidth 5:10.0.2.2"  ETV
vector 1040  CAIN.eNodeB1.sctp  "HB Sent 5:10.0.2.2"  ETV
vector 1033  CAIN.eNodeB1.sctp  "RTO 5:10.0.2.2"  ETV
vector 1008  CAIN.eNodeB1.sctp  "Slow Start Threshold 5:10.0.4.1"  ETV
vector 1009  CAIN.eNodeB1.sctp  "Congestion Window 5:10.0.4.1"  ETV
vector 1010  CAIN.eNodeB1.sctp  "Bandwidth 5:10.0.4.1"  ETV
vector 1013  CAIN.eNodeB1.sctp  "HB Sent 5:10.0.4.1"  ETV
vector 1006  CAIN.eNodeB1.sctp  "RTO 5:10.0.4.1"  ETV
vector 1062  CAIN.eNodeB1.sctp  "Slow Start Threshold 5:10.0.5.1"  ETV
vector 1063  CAIN.eNodeB1.sctp  "Congestion Window 5:10.0.5.1"  ETV
vector 1064  CAIN.eNodeB1.sctp  "Bandwidth 5:10.0.5.1"  ETV
vector 1060  CAIN.eNodeB1.sctp  "RTO 5:10.0.5.1"  ETV
vector 1138  CAIN.eNodeB.sctp  "Slow Start Threshold 6:10.0.3.2"  ETV
vector 1139  CAIN.eNodeB.sctp  "Congestion Window 6:10.0.3.2"  ETV
vector 1140  CAIN.eNodeB.sctp  "Bandwidth 6:10.0.3.2"  ETV
vector 1143  CAIN.eNodeB.sctp  "HB Sent 6:10.0.3.2"  ETV
vector 1136  CAIN.eNodeB.sctp  "RTO 6:10.0.3.2"  ETV
vector 1111  CAIN.eNodeB.sctp  "Slow Start Threshold 6:10.0.4.2"  ETV
vector 1112  CAIN.eNodeB.sctp  "Congestion Window 6:10.0.4.2"  ETV
vector 1113  CAIN.eNodeB.sctp  "Bandwidth 6:10.0.4.2"  ETV
vector 1116  CAIN.eNodeB.sctp  "HB Sent 6:10.0.4.2"  ETV
vector 1109  CAIN.eNodeB.sctp  "RTO 6:10.0.4.2"  ETV
vector 1165  CAIN.eNodeB.sctp  "Slow Start Threshold 6:10.0.5.2"  ETV
vector 1166  CAIN.eNodeB.sctp  "Congestion Window 6:10.0.5.2"  ETV
vector 1167  CAIN.eNodeB.sctp  "Bandwidth 6:10.0.5.2"  ETV
vector 1163  CAIN.eNodeB.sctp  "RTO 6:10.0.5.2"  ETV
vector 916  CAIN.eNodeB.sctp  "HB ACK Sent 1:10.0.5.2"  ETV
vector 917  CAIN.eNodeB.sctp  "HB Received 1:10.0.5.2"  ETV
vector 965  CAIN.eNodeB1.sctp  "HB ACK Sent 2:10.0.5.1"  ETV
vector 966  CAIN.eNodeB1.sctp  "HB Received 2:10.0.5.1"  ETV
vector 1219  CAIN.eNodeB.sctp  "Slow Start Threshold 1:10.0.3.2"  ETV
vector 1220  CAIN.eNodeB.sctp  "Congestion Window 1:10.0.3.2"  ETV
vector 1221  CAIN.eNodeB.sctp  "Bandwidth 1:10.0.3.2"  ETV
vector 1224  CAIN.eNodeB.sctp  "HB Sent 1:10.0.3.2"  ETV
vector 1217  CAIN.eNodeB.sctp  "RTO 1:10.0.3.2"  ETV
vector 1192  CAIN.eNodeB.sctp  "Slow Start Threshold 1:10.0.4.2"  ETV
vector 1193  CAIN.eNodeB.sctp  "Congestion Window 1:10.0.4.2"  ETV
vector 1194  CAIN.eNodeB.sctp  "Bandwidth 1:10.0.4.2"  ETV
vector 1197  CAIN.eNodeB.sctp  "HB Sent 1:10.0.4.2"  ETV
vector 1190  CAIN.eNodeB.sctp  "RTO 1:10.0.4.2"  ETV
vector 910  CAIN.eNodeB.sctp  "Slow Start Threshold 1:10.0.5.2"  ETV
vector 911  CAIN.eNodeB.sctp  "Congestion Window 1:10.0.5.2"  ETV
vector 912  CAIN.eNodeB.sctp  "Bandwidth 1:10.0.5.2"  ETV
vector 908  CAIN.eNodeB.sctp  "RTO 1:10.0.5.2"  ETV
vector 1273  CAIN.eNodeB1.sctp  "Slow Start Threshold 2:10.0.2.2"  ETV
vector 1274  CAIN.eNodeB1.sctp  "Congestion Window 2:10.0.2.2"  ETV
vector 1275  CAIN.eNodeB1.sctp  "Bandwidth 2:10.0.2.2"  ETV
vector 1278  CAIN.eNodeB1.sctp  "HB Sent 2:10.0.2.2"  ETV
vector 1271  CAIN.eNodeB1.sctp  "RTO 2:10.0.2.2"  ETV
vector 1246  CAIN.eNodeB1.sctp  "Slow Start Threshold 2:10.0.4.1"  ETV
vector 1247  CAIN.eNodeB1.sctp  "Congestion Window 2:10.0.4.1"  ETV
vector 1248  CAIN.eNodeB1.sctp  "Bandwidth 2:10.0.4.1"  ETV
vector 1251  CAIN.eNodeB1.sctp  "HB Sent 2:10.0.4.1"  ETV
vector 1244  CAIN.eNodeB1.sctp  "RTO 2:10.0.4.1"  ETV
vector 959  CAIN.eNodeB1.sctp  "Slow Start Threshold 2:10.0.5.1"  ETV
vector 960  CAIN.eNodeB1.sctp  "Congestion Window 2:10.0.5.1"  ETV
vector 961  CAIN.eNodeB1.sctp  "Bandwidth 2:10.0.5.1"  ETV
vector 957  CAIN.eNodeB1.sctp  "RTO 2:10.0.5.1"  ETV
vector 1173  CAIN.eNodeB.sctp  "HB ACK Received 6:10.0.5.2"  ETV
vector 1164  CAIN.eNodeB.sctp  "RTT 6:10.0.5.2"  ETV
vector 1070  CAIN.eNodeB1.sctp  "HB ACK Received 5:10.0.5.1"  ETV
vector 1061  CAIN.eNodeB1.sctp  "RTT 5:10.0.5.1"  ETV
vector 1171  CAIN.eNodeB.sctp  "HB ACK Sent 6:10.0.5.2"  ETV
vector 1172  CAIN.eNodeB.sctp  "HB Received 6:10.0.5.2"  ETV
vector 1068  CAIN.eNodeB1.sctp  "HB ACK Sent 5:10.0.5.1"  ETV
vector 1069  CAIN.eNodeB1.sctp  "HB Received 5:10.0.5.1"  ETV
vector 967  CAIN.eNodeB1.sctp  "HB ACK Received 2:10.0.5.1"  ETV
vector 958  CAIN.eNodeB1.sctp  "RTT 2:10.0.5.1"  ETV
vector 918  CAIN.eNodeB.sctp  "HB ACK Received 1:10.0.5.2"  ETV
vector 909  CAIN.eNodeB.sctp  "RTT 1:10.0.5.2"  ETV
vector 96  CAIN.eNodeB.nic.mac  receivedPacketFromLowerLayer:vector(packetBytes)  ETV
attr interpolationmode  none
attr source  receivedPacketFromLowerLayer
vector 1305  CAIN.eNodeB.sctp  "SendQueue of Association 6"  ETV
vector 1168  CAIN.eNodeB.sctp  "TSN Sent 6:10.0.5.2"  ETV
vector 1175  CAIN.eNodeB.sctp  "Outstanding Bytes 6:10.0.5.2"  ETV
vector 848  CAIN.eNodeB.sctp  "Outstanding Bytes 3:Total"  ETV
vector 1174  CAIN.eNodeB.sctp  "Queued Sent Bytes 6:10.0.5.2"  ETV
vector 847  CAIN.eNodeB.sctp  "Queued Sent Bytes 3:Total"  ETV
vector 963  CAIN.eNodeB1.sctp  "TSN Received 2:10.0.5.1"  ETV
vector 939  CAIN.eNodeB1.sctp  "Queued Received Bytes 2:Total"  ETV
vector 935  CAIN.eNodeB1.sctp  "Advertised Receiver Window 2"  ETV
vector 944  CAIN.eNodeB1.sctp  "Number of Total Gap Blocks Stored 2"  ETV
vector 945  CAIN.eNodeB1.sctp  "Number of Revokable Gap Blocks Stored 2"  ETV
vector 946  CAIN.eNodeB1.sctp  "Number of Non-Revokable Gap Blocks Stored 2"  ETV
vector 947  CAIN.eNodeB1.sctp  "Number of Duplicate TSNs Stored 2"  ETV
vector 951  CAIN.eNodeB1.sctp  "Length of SACK Sent 2"  ETV
vector 948  CAIN.eNodeB1.sctp  "Number of Revokable Gap Blocks Sent 2"  ETV
vector 949  CAIN.eNodeB1.sctp  "Number of Non-Revokable Gap Blocks Sent 2"  ETV
vector 950  CAIN.eNodeB1.sctp  "Number of Duplicate TSNs Sent 2"  ETV
vector 955  CAIN.eNodeB1.sctp  "End to End Delay of Association 2"  ETV
vector 199  CAIN.eNodeB1.x2App[0].client  rcvdPk:vector(packetBytes)  ETV
attr interpolationmode  none
attr source  rcvdPk
attr title  "packets received, vector(packetBytes)"
vector 1304  CAIN.eNodeB.sctp  "Number of Gap Blocks in Last SACK of Association 6"  ETV
vector 849  CAIN.eNodeB.sctp  "Number of Revokable Gap Blocks in SACK 3"  ETV
vector 850  CAIN.eNodeB.sctp  "Number of Non-Revokable Gap Blocks in SACK 3"  ETV
vector 1185  CAIN.eNodeB.sctp  "TSN Acked CumAck 6:10.0.5.2"  ETV
vector 1151  CAIN.eNodeB.sctp  "Number of Gap Acked Chunks in Last SACK 6:10.0.3.2"  ETV
vector 1152  CAIN.eNodeB.sctp  "Number of Non-Revokable Gap Acked Chunks in Last SACK 6:10.0.3.2"  ETV
vector 1153  CAIN.eNodeB.sctp  "Number of Gap Missed Chunks in Last SACK 6:10.0.3.2"  ETV
vector 1124  CAIN.eNodeB.sctp  "Number of Gap Acked Chunks in Last SACK 6:10.0.4.2"  ETV
vector 1125  CAIN.eNodeB.sctp  "Number of Non-Revokable Gap Acked Chunks in Last SACK 6:10.0.4.2"  ETV
vector 1126  CAIN.eNodeB.sctp  "Number of Gap Missed Chunks in Last SACK 6:10.0.4.2"  ETV
vector 1178  CAIN.eNodeB.sctp  "Number of Gap Acked Chunks in Last SACK 6:10.0.5.2"  ETV
vector 1179  CAIN.eNodeB.sctp  "Number of Non-Revokable Gap Acked Chunks in Last SACK 6:10.0.5.2"  ETV
vector 1180  CAIN.eNodeB.sctp  "Number of Gap Missed Chunks in Last SACK 6:10.0.5.2"  ETV
vector 859  CAIN.eNodeB.sctp  "Arwnd in Last SACK 3"  ETV
vector 1187  CAIN.eNodeB.sctp  "TSN PseudoCumAck 6:10.0.5.2"  ETV
vector 1188  CAIN.eNodeB.sctp  "TSN RTXPseudoCumAck 6:10.0.5.2"  ETV
vector 1181  CAIN.eNodeB.sctp  "Partial Bytes Acked 6:10.0.5.2"  ETV
vector 1333  CAIN.ueD2DTx[13].tcp  tcpRcvQueueBytes  ETV
vector 1320  CAIN.ueD2DTx[13].tcp  "advertised window"  ETV
vector 1319  CAIN.ueD2DTx[13].tcp  "receive window"  ETV
vector 1322  CAIN.ueD2DTx[13].tcp  "sent ack"  ETV
vector 621  CAIN.ueD2DTx[13].nic.pdcpRrc  receivedPacketFromUpperLayer:vector(packetBytes)  ETV
attr interpolationmode  none
attr source  receivedPacketFromUpperLayer
vector 624  CAIN.ueD2DTx[13].nic.pdcpRrc  sentPacketToLowerLayer:vector(packetBytes)  ETV
attr interpolationmode  none
attr source  sentPacketToLowerLayer
vector 625  CAIN.ueD2DTx[13].nic.mac  receivedPacketFromUpperLayer:vector(packetBytes)  ETV
attr interpolationmode  none
attr source  receivedPacketFromUpperLayer
vector 635  CAIN.ueD2DTx[13].nic.mac  CainHopMessageSent:vector  ETV
attr interpolationmode  none
attr title  "# of Sent CAIN hop message, vector"
vector 628  CAIN.ueD2DTx[13].nic.mac  sentPacketToLowerLayer:vector(packetBytes)  ETV
attr interpolationmode  none
attr source  sentPacketToLowerLayer
vector 530  CAIN.ueD2DTx[10].nic.mac  receivedPacketFromLowerLayer:vector(packetBytes)  ETV
attr interpolationmode  none
attr source  receivedPacketFromLowerLayer
vector 532  CAIN.ueD2DTx[10].nic.mac  sentPacketToLowerLayer:vector(packetBytes)  ETV
attr interpolationmode  none
attr source  sentPacketToLowerLayer
vector 786  CAIN.ueD2DTx[18].nic.mac  receivedPacketFromLowerLayer:vector(packetBytes)  ETV
attr interpolationmode  none
attr source  receivedPacketFromLowerLayer
vector 788  CAIN.ueD2DTx[18].nic.mac  sentPacketToLowerLayer:vector(packetBytes)  ETV
attr interpolationmode  none
attr source  sentPacketToLowerLayer
vector 111  CAIN.eNodeB.nic.mac  racpkt:vector  ETV
attr interpolationmode  none
attr title  "eNB received racpkt message, vector"
vector 112  CAIN.eNodeB.nic.mac  racDistanceSignal:vector  ETV
attr interpolationmode  none
attr title  "Rac distance to enb, vector"
vector 113  CAIN.eNodeB.nic.mac  racServedDevsSignal:vector  ETV
attr interpolationmode  none
attr title  "# of devices served on rac arriavall, vector"
vector 106  CAIN.eNodeB.nic.mac  DistanceSignal:vector  ETV
attr interpolationmode  none
attr title  "Distance to enb, vector"
vector 101  CAIN.eNodeB.nic.mac  CainHopMessage:vector  ETV
attr interpolationmode  none
attr title  "eNB received CAIN hop message, vector"
vector 98  CAIN.eNodeB.nic.mac  sentPacketToLowerLayer:vector(packetBytes)  ETV
attr interpolationmode  none
attr source  sentPacketToLowerLayer
vector 793  CAIN.ueD2DTx[18].nic.mac  DropedHopMessage:vector  ETV
attr interpolationmode  none
attr title  "Droped Hop CAIN message due to RB not available, vector"
vector 1357  CAIN.ueD2DTx[18].tcp  tcpRcvQueueBytes  ETV
vector 1344  CAIN.ueD2DTx[18].tcp  "advertised window"  ETV
vector 1343  CAIN.ueD2DTx[18].tcp  "receive window"  ETV
vector 1346  CAIN.ueD2DTx[18].tcp  "sent ack"  ETV
vector 781  CAIN.ueD2DTx[18].nic.pdcpRrc  receivedPacketFromUpperLayer:vector(packetBytes)  ETV
attr interpolationmode  none
attr source  receivedPacketFromUpperLayer
vector 784  CAIN.ueD2DTx[18].nic.pdcpRrc  sentPacketToLowerLayer:vector(packetBytes)  ETV
attr interpolationmode  none
attr source  sentPacketToLowerLayer
vector 785  CAIN.ueD2DTx[18].nic.mac  receivedPacketFromUpperLayer:vector(packetBytes)  ETV
attr interpolationmode  none
attr source  receivedPacketFromUpperLayer
vector 787  CAIN.ueD2DTx[18].nic.mac  sentPacketToUpperLayer:vector(packetBytes)  ETV
attr interpolationmode  none
attr source  sentPacketToUpperLayer
vector 1381  CAIN.ueD2DTx[6].tcp  tcpRcvQueueBytes  ETV
vector 1368  CAIN.ueD2DTx[6].tcp  "advertised window"  ETV
vector 1367  CAIN.ueD2DTx[6].tcp  "receive window"  ETV
vector 1370  CAIN.ueD2DTx[6].tcp  "sent ack"  ETV
vector 397  CAIN.ueD2DTx[6].nic.pdcpRrc  receivedPacketFromUpperLayer:vector(packetBytes)  ETV
attr interpolationmode  none
attr source  receivedPacketFromUpperLayer
vector 400  CAIN.ueD2DTx[6].nic.pdcpRrc  sentPacketToLowerLayer:vector(packetBytes)  ETV
attr interpolationmode  none
attr source  sentPacketToLowerLayer
vector 401  CAIN.ueD2DTx[6].nic.mac  receivedPacketFromUpperLayer:vector(packetBytes)  ETV
attr interpolationmode  none
attr source  receivedPacketFromUpperLayer
vector 410  CAIN.ueD2DTx[6].nic.mac  CainMessageSent:vector  ETV
attr interpolationmode  none
attr title  "# of Sent CAIN message, vector"
vector 404  CAIN.ueD2DTx[6].nic.mac  sentPacketToLowerLayer:vector(packetBytes)  ETV
attr interpolationmode  none
attr source  sentPacketToLowerLayer
vector 115  CAIN.eNodeB.nic.phy  averageCqiUlvect:vector  ETV
attr source  averageCqiUlvect
attr title  "Average Cqi reported in UL, vector"
attr unit  cqi
vector 109  CAIN.eNodeB.nic.mac  ServedHopDevs:vector  ETV
attr interpolationmode  none
attr title  "# of devices served on hop forwarding, vector"
vector 1405  CAIN.ueD2DTx[14].tcp  tcpRcvQueueBytes  ETV
vector 1392  CAIN.ueD2DTx[14].tcp  "advertised window"  ETV
vector 1391  CAIN.ueD2DTx[14].tcp  "receive window"  ETV
vector 1394  CAIN.ueD2DTx[14].tcp  "sent ack"  ETV
vector 653  CAIN.ueD2DTx[14].nic.pdcpRrc  receivedPacketFromUpperLayer:vector(packetBytes)  ETV
attr interpolationmode  none
attr source  receivedPacketFromUpperLayer
vector 656  CAIN.ueD2DTx[14].nic.pdcpRrc  sentPacketToLowerLayer:vector(packetBytes)  ETV
attr interpolationmode  none
attr source  sentPacketToLowerLayer
vector 657  CAIN.ueD2DTx[14].nic.mac  receivedPacketFromUpperLayer:vector(packetBytes)  ETV
attr interpolationmode  none
attr source  receivedPacketFromUpperLayer
vector 667  CAIN.ueD2DTx[14].nic.mac  CainHopMessageSent:vector  ETV
attr interpolationmode  none
attr title  "# of Sent CAIN hop message, vector"
vector 660  CAIN.ueD2DTx[14].nic.mac  sentPacketToLowerLayer:vector(packetBytes)  ETV
attr interpolationmode  none
attr source  sentPacketToLowerLayer
vector 498  CAIN.ueD2DTx[9].nic.mac  receivedPacketFromLowerLayer:vector(packetBytes)  ETV
attr interpolationmode  none
attr source  receivedPacketFromLowerLayer
vector 500  CAIN.ueD2DTx[9].nic.mac  sentPacketToLowerLayer:vector(packetBytes)  ETV
attr interpolationmode  none
attr source  sentPacketToLowerLayer
vector 1429  CAIN.ueD2DTx[12].tcp  tcpRcvQueueBytes  ETV
vector 1416  CAIN.ueD2DTx[12].tcp  "advertised window"  ETV
vector 1415  CAIN.ueD2DTx[12].tcp  "receive window"  ETV
vector 1418  CAIN.ueD2DTx[12].tcp  "sent ack"  ETV
vector 589  CAIN.ueD2DTx[12].nic.pdcpRrc  receivedPacketFromUpperLayer:vector(packetBytes)  ETV
attr interpolationmode  none
attr source  receivedPacketFromUpperLayer
vector 592  CAIN.ueD2DTx[12].nic.pdcpRrc  sentPacketToLowerLayer:vector(packetBytes)  ETV
attr interpolationmode  none
attr source  sentPacketToLowerLayer
vector 593  CAIN.ueD2DTx[12].nic.mac  receivedPacketFromUpperLayer:vector(packetBytes)  ETV
attr interpolationmode  none
attr source  receivedPacketFromUpperLayer
vector 603  CAIN.ueD2DTx[12].nic.mac  CainHopMessageSent:vector  ETV
attr interpolationmode  none
attr title  "# of Sent CAIN hop message, vector"
vector 596  CAIN.ueD2DTx[12].nic.mac  sentPacketToLowerLayer:vector(packetBytes)  ETV
attr interpolationmode  none
attr source  sentPacketToLowerLayer
vector 562  CAIN.ueD2DTx[11].nic.mac  receivedPacketFromLowerLayer:vector(packetBytes)  ETV
attr interpolationmode  none
attr source  receivedPacketFromLowerLayer
vector 564  CAIN.ueD2DTx[11].nic.mac  sentPacketToLowerLayer:vector(packetBytes)  ETV
attr interpolationmode  none
attr source  sentPacketToLowerLayer
vector 100  CAIN.eNodeB.nic.mac  CainMessage:vector  ETV
attr interpolationmode  none
attr title  "eNB received CAIN message, vector"
vector 97  CAIN.eNodeB.nic.mac  sentPacketToUpperLayer:vector(packetBytes)  ETV
attr interpolationmode  none
attr source  sentPacketToUpperLayer
vector 99  CAIN.eNodeB.nic.mac  measuredItbs:vector  ETV
attr source  measuredItbs
attr title  "TBS index, vector"
attr unit  ""
vector 92  CAIN.eNodeB.nic.pdcpRrc  receivedPacketFromLowerLayer:vector(packetBytes)  ETV
attr interpolationmode  none
attr source  receivedPacketFromLowerLayer
vector 93  CAIN.eNodeB.nic.pdcpRrc  sentPacketToUpperLayer:vector(packetBytes)  ETV
attr interpolationmode  none
attr source  sentPacketToUpperLayer
vector 86  CAIN.eNodeB.udp  sentPk:vector(packetBytes)  ETV
attr interpolationmode  none
attr source  sentPk
attr title  "packets sent, vector(packetBytes)"
vector 504  CAIN.ueD2DTx[9].nic.mac  DropedCainMessage:vector  ETV
attr interpolationmode  none
attr title  "Droped CAIN message due to RB not available, vector"
vector 145  CAIN.eNodeB1.udp  rcvdPk:vector(packetBytes)  ETV
attr interpolationmode  none
attr source  rcvdPk
attr title  "packets received, vector(packetBytes)"
vector 146  CAIN.eNodeB1.udp  passedUpPk:vector(count)  ETV
attr interpolationmode  none
attr title  "packets passed up, vector(count)"
vector 505  CAIN.ueD2DTx[9].nic.mac  DropedHopMessage:vector  ETV
attr interpolationmode  none
attr title  "Droped Hop CAIN message due to RB not available, vector"
vector 1453  CAIN.ueD2DTx[2].tcp  tcpRcvQueueBytes  ETV
vector 1440  CAIN.ueD2DTx[2].tcp  "advertised window"  ETV
vector 1439  CAIN.ueD2DTx[2].tcp  "receive window"  ETV
vector 1442  CAIN.ueD2DTx[2].tcp  "sent ack"  ETV
vector 269  CAIN.ueD2DTx[2].nic.pdcpRrc  receivedPacketFromUpperLayer:vector(packetBytes)  ETV
attr interpolationmode  none
attr source  receivedPacketFromUpperLayer
vector 272  CAIN.ueD2DTx[2].nic.pdcpRrc  sentPacketToLowerLayer:vector(packetBytes)  ETV
attr interpolationmode  none
attr source  sentPacketToLowerLayer
vector 273  CAIN.ueD2DTx[2].nic.mac  receivedPacketFromUpperLayer:vector(packetBytes)  ETV
attr interpolationmode  none
attr source  receivedPacketFromUpperLayer
vector 276  CAIN.ueD2DTx[2].nic.mac  sentPacketToLowerLayer:vector(packetBytes)  ETV
attr interpolationmode  none
attr source  sentPacketToLowerLayer
vector 1477  CAIN.ueD2DTx[15].tcp  tcpRcvQueueBytes  ETV
vector 1464  CAIN.ueD2DTx[15].tcp  "advertised window"  ETV
vector 1463  CAIN.ueD2DTx[15].tcp  "receive window"  ETV
vector 1466  CAIN.ueD2DTx[15].tcp  "sent ack"  ETV
vector 685  CAIN.ueD2DTx[15].nic.pdcpRrc  receivedPacketFromUpperLayer:vector(packetBytes)  ETV
attr interpolationmode  none
attr source  receivedPacketFromUpperLayer
vector 688  CAIN.ueD2DTx[15].nic.pdcpRrc  sentPacketToLowerLayer:vector(packetBytes)  ETV
attr interpolationmode  none
attr source  sentPacketToLowerLayer
vector 689  CAIN.ueD2DTx[15].nic.mac  receivedPacketFromUpperLayer:vector(packetBytes)  ETV
attr interpolationmode  none
attr source  receivedPacketFromUpperLayer
vector 692  CAIN.ueD2DTx[15].nic.mac  sentPacketToLowerLayer:vector(packetBytes)  ETV
attr interpolationmode  none
attr source  sentPacketToLowerLayer
vector 274  CAIN.ueD2DTx[2].nic.mac  receivedPacketFromLowerLayer:vector(packetBytes)  ETV
attr interpolationmode  none
attr source  receivedPacketFromLowerLayer
vector 1501  CAIN.ueD2DTx[3].tcp  tcpRcvQueueBytes  ETV
vector 1488  CAIN.ueD2DTx[3].tcp  "advertised window"  ETV
vector 1487  CAIN.ueD2DTx[3].tcp  "receive window"  ETV
vector 1490  CAIN.ueD2DTx[3].tcp  "sent ack"  ETV
vector 301  CAIN.ueD2DTx[3].nic.pdcpRrc  receivedPacketFromUpperLayer:vector(packetBytes)  ETV
attr interpolationmode  none
attr source  receivedPacketFromUpperLayer
vector 304  CAIN.ueD2DTx[3].nic.pdcpRrc  sentPacketToLowerLayer:vector(packetBytes)  ETV
attr interpolationmode  none
attr source  sentPacketToLowerLayer
vector 305  CAIN.ueD2DTx[3].nic.mac  receivedPacketFromUpperLayer:vector(packetBytes)  ETV
attr interpolationmode  none
attr source  receivedPacketFromUpperLayer
vector 275  CAIN.ueD2DTx[2].nic.mac  sentPacketToUpperLayer:vector(packetBytes)  ETV
attr interpolationmode  none
attr source  sentPacketToUpperLayer
vector 315  CAIN.ueD2DTx[3].nic.mac  CainHopMessageSent:vector  ETV
attr interpolationmode  none
attr title  "# of Sent CAIN hop message, vector"
vector 308  CAIN.ueD2DTx[3].nic.mac  sentPacketToLowerLayer:vector(packetBytes)  ETV
attr interpolationmode  none
attr source  sentPacketToLowerLayer
vector 690  CAIN.ueD2DTx[15].nic.mac  receivedPacketFromLowerLayer:vector(packetBytes)  ETV
attr interpolationmode  none
attr source  receivedPacketFromLowerLayer
vector 691  CAIN.ueD2DTx[15].nic.mac  sentPacketToUpperLayer:vector(packetBytes)  ETV
attr interpolationmode  none
attr source  sentPacketToUpperLayer
vector 1525  CAIN.ueD2DTx[8].tcp  tcpRcvQueueBytes  ETV
vector 1512  CAIN.ueD2DTx[8].tcp  "advertised window"  ETV
vector 1511  CAIN.ueD2DTx[8].tcp  "receive window"  ETV
vector 1514  CAIN.ueD2DTx[8].tcp  "sent ack"  ETV
vector 461  CAIN.ueD2DTx[8].nic.pdcpRrc  receivedPacketFromUpperLayer:vector(packetBytes)  ETV
attr interpolationmode  none
attr source  receivedPacketFromUpperLayer
vector 464  CAIN.ueD2DTx[8].nic.pdcpRrc  sentPacketToLowerLayer:vector(packetBytes)  ETV
attr interpolationmode  none
attr source  sentPacketToLowerLayer
vector 465  CAIN.ueD2DTx[8].nic.mac  receivedPacketFromUpperLayer:vector(packetBytes)  ETV
attr interpolationmode  none
attr source  receivedPacketFromUpperLayer
vector 474  CAIN.ueD2DTx[8].nic.mac  CainMessageSent:vector  ETV
attr interpolationmode  none
attr title  "# of Sent CAIN message, vector"
vector 468  CAIN.ueD2DTx[8].nic.mac  sentPacketToLowerLayer:vector(packetBytes)  ETV
attr interpolationmode  none
attr source  sentPacketToLowerLayer
vector 818  CAIN.ueD2DTx[19].nic.mac  receivedPacketFromLowerLayer:vector(packetBytes)  ETV
attr interpolationmode  none
attr source  receivedPacketFromLowerLayer
vector 820  CAIN.ueD2DTx[19].nic.mac  sentPacketToLowerLayer:vector(packetBytes)  ETV
attr interpolationmode  none
attr source  sentPacketToLowerLayer
vector 824  CAIN.ueD2DTx[19].nic.mac  DropedCainMessage:vector  ETV
attr interpolationmode  none
attr title  "Droped CAIN message due to RB not available, vector"
vector 1549  CAIN.ueD2DTx[11].tcp  tcpRcvQueueBytes  ETV
vector 1536  CAIN.ueD2DTx[11].tcp  "advertised window"  ETV
vector 1535  CAIN.ueD2DTx[11].tcp  "receive window"  ETV
vector 1538  CAIN.ueD2DTx[11].tcp  "sent ack"  ETV
vector 557  CAIN.ueD2DTx[11].nic.pdcpRrc  receivedPacketFromUpperLayer:vector(packetBytes)  ETV
attr interpolationmode  none
attr source  receivedPacketFromUpperLayer
vector 560  CAIN.ueD2DTx[11].nic.pdcpRrc  sentPacketToLowerLayer:vector(packetBytes)  ETV
attr interpolationmode  none
attr source  sentPacketToLowerLayer
vector 561  CAIN.ueD2DTx[11].nic.mac  receivedPacketFromUpperLayer:vector(packetBytes)  ETV
attr interpolationmode  none
attr source  receivedPacketFromUpperLayer
vector 570  CAIN.ueD2DTx[11].nic.mac  CainMessageSent:vector  ETV
attr interpolationmode  none
attr title  "# of Sent CAIN message, vector"
vector 108  CAIN.eNodeB.nic.mac  ServedDevs:vector  ETV
attr interpolationmode  none
attr title  "# of devices served on cain forwarding, vector"
vector 1573  CAIN.ueD2DTx[7].tcp  tcpRcvQueueBytes  ETV
vector 1560  CAIN.ueD2DTx[7].tcp  "advertised window"  ETV
vector 1559  CAIN.ueD2DTx[7].tcp  "receive window"  ETV
vector 1562  CAIN.ueD2DTx[7].tcp  "sent ack"  ETV
vector 429  CAIN.ueD2DTx[7].nic.pdcpRrc  receivedPacketFromUpperLayer:vector(packetBytes)  ETV
attr interpolationmode  none
attr source  receivedPacketFromUpperLayer
vector 432  CAIN.ueD2DTx[7].nic.pdcpRrc  sentPacketToLowerLayer:vector(packetBytes)  ETV
attr interpolationmode  none
attr source  sentPacketToLowerLayer
vector 433  CAIN.ueD2DTx[7].nic.mac  receivedPacketFromUpperLayer:vector(packetBytes)  ETV
attr interpolationmode  none
attr source  receivedPacketFromUpperLayer
vector 442  CAIN.ueD2DTx[7].nic.mac  CainMessageSent:vector  ETV
attr interpolationmode  none
attr title  "# of Sent CAIN message, vector"
vector 436  CAIN.ueD2DTx[7].nic.mac  sentPacketToLowerLayer:vector(packetBytes)  ETV
attr interpolationmode  none
attr source  sentPacketToLowerLayer
vector 149  CAIN.eNodeB1.nic.pdcpRrc  receivedPacketFromUpperLayer:vector(packetBytes)  ETV
attr interpolationmode  none
attr source  receivedPacketFromUpperLayer
vector 152  CAIN.eNodeB1.nic.pdcpRrc  sentPacketToLowerLayer:vector(packetBytes)  ETV
attr interpolationmode  none
attr source  sentPacketToLowerLayer
vector 1301  CAIN.eNodeB1.sctp  "SendQueue of Association 5"  ETV
vector 1065  CAIN.eNodeB1.sctp  "TSN Sent 5:10.0.5.1"  ETV
vector 1072  CAIN.eNodeB1.sctp  "Outstanding Bytes 5:10.0.5.1"  ETV
vector 870  CAIN.eNodeB1.sctp  "Outstanding Bytes 4:Total"  ETV
vector 1071  CAIN.eNodeB1.sctp  "Queued Sent Bytes 5:10.0.5.1"  ETV
vector 869  CAIN.eNodeB1.sctp  "Queued Sent Bytes 4:Total"  ETV
vector 153  CAIN.eNodeB1.nic.mac  receivedPacketFromUpperLayer:vector(packetBytes)  ETV
attr interpolationmode  none
attr source  receivedPacketFromUpperLayer
vector 914  CAIN.eNodeB.sctp  "TSN Received 1:10.0.5.2"  ETV
vector 890  CAIN.eNodeB.sctp  "Queued Received Bytes 1:Total"  ETV
vector 886  CAIN.eNodeB.sctp  "Advertised Receiver Window 1"  ETV
vector 895  CAIN.eNodeB.sctp  "Number of Total Gap Blocks Stored 1"  ETV
vector 896  CAIN.eNodeB.sctp  "Number of Revokable Gap Blocks Stored 1"  ETV
vector 897  CAIN.eNodeB.sctp  "Number of Non-Revokable Gap Blocks Stored 1"  ETV
vector 898  CAIN.eNodeB.sctp  "Number of Duplicate TSNs Stored 1"  ETV
vector 902  CAIN.eNodeB.sctp  "Length of SACK Sent 1"  ETV
vector 899  CAIN.eNodeB.sctp  "Number of Revokable Gap Blocks Sent 1"  ETV
vector 900  CAIN.eNodeB.sctp  "Number of Non-Revokable Gap Blocks Sent 1"  ETV
vector 901  CAIN.eNodeB.sctp  "Number of Duplicate TSNs Sent 1"  ETV
vector 906  CAIN.eNodeB.sctp  "End to End Delay of Association 1"  ETV
vector 141  CAIN.eNodeB.x2App[0].client  rcvdPk:vector(packetBytes)  ETV
attr interpolationmode  none
attr source  rcvdPk
attr title  "packets received, vector(packetBytes)"
vector 1300  CAIN.eNodeB1.sctp  "Number of Gap Blocks in Last SACK of Association 5"  ETV
vector 871  CAIN.eNodeB1.sctp  "Number of Revokable Gap Blocks in SACK 4"  ETV
vector 872  CAIN.eNodeB1.sctp  "Number of Non-Revokable Gap Blocks in SACK 4"  ETV
vector 1082  CAIN.eNodeB1.sctp  "TSN Acked CumAck 5:10.0.5.1"  ETV
vector 1048  CAIN.eNodeB1.sctp  "Number of Gap Acked Chunks in Last SACK 5:10.0.2.2"  ETV
vector 1049  CAIN.eNodeB1.sctp  "Number of Non-Revokable Gap Acked Chunks in Last SACK 5:10.0.2.2"  ETV
vector 1050  CAIN.eNodeB1.sctp  "Number of Gap Missed Chunks in Last SACK 5:10.0.2.2"  ETV
vector 1021  CAIN.eNodeB1.sctp  "Number of Gap Acked Chunks in Last SACK 5:10.0.4.1"  ETV
vector 1022  CAIN.eNodeB1.sctp  "Number of Non-Revokable Gap Acked Chunks in Last SACK 5:10.0.4.1"  ETV
vector 1023  CAIN.eNodeB1.sctp  "Number of Gap Missed Chunks in Last SACK 5:10.0.4.1"  ETV
vector 1075  CAIN.eNodeB1.sctp  "Number of Gap Acked Chunks in Last SACK 5:10.0.5.1"  ETV
vector 1076  CAIN.eNodeB1.sctp  "Number of Non-Revokable Gap Acked Chunks in Last SACK 5:10.0.5.1"  ETV
vector 1077  CAIN.eNodeB1.sctp  "Number of Gap Missed Chunks in Last SACK 5:10.0.5.1"  ETV
vector 881  CAIN.eNodeB1.sctp  "Arwnd in Last SACK 4"  ETV
vector 1084  CAIN.eNodeB1.sctp  "TSN PseudoCumAck 5:10.0.5.1"  ETV
vector 1085  CAIN.eNodeB1.sctp  "TSN RTXPseudoCumAck 5:10.0.5.1"  ETV
vector 1078  CAIN.eNodeB1.sctp  "Partial Bytes Acked 5:10.0.5.1"  ETV
vector 1597  CAIN.ueD2DTx[4].tcp  tcpRcvQueueBytes  ETV
vector 1584  CAIN.ueD2DTx[4].tcp  "advertised window"  ETV
vector 1583  CAIN.ueD2DTx[4].tcp  "receive window"  ETV
vector 1586  CAIN.ueD2DTx[4].tcp  "sent ack"  ETV
vector 333  CAIN.ueD2DTx[4].nic.pdcpRrc  receivedPacketFromUpperLayer:vector(packetBytes)  ETV
attr interpolationmode  none
attr source  receivedPacketFromUpperLayer
vector 336  CAIN.ueD2DTx[4].nic.pdcpRrc  sentPacketToLowerLayer:vector(packetBytes)  ETV
attr interpolationmode  none
attr source  sentPacketToLowerLayer
vector 337  CAIN.ueD2DTx[4].nic.mac  receivedPacketFromUpperLayer:vector(packetBytes)  ETV
attr interpolationmode  none
attr source  receivedPacketFromUpperLayer
vector 347  CAIN.ueD2DTx[4].nic.mac  CainHopMessageSent:vector  ETV
attr interpolationmode  none
attr title  "# of Sent CAIN hop message, vector"
vector 340  CAIN.ueD2DTx[4].nic.mac  sentPacketToLowerLayer:vector(packetBytes)  ETV
attr interpolationmode  none
attr source  sentPacketToLowerLayer
vector 154  CAIN.eNodeB1.nic.mac  receivedPacketFromLowerLayer:vector(packetBytes)  ETV
attr interpolationmode  none
attr source  receivedPacketFromLowerLayer
vector 1621  CAIN.ueD2DTx[16].tcp  tcpRcvQueueBytes  ETV
vector 1608  CAIN.ueD2DTx[16].tcp  "advertised window"  ETV
vector 1607  CAIN.ueD2DTx[16].tcp  "receive window"  ETV
vector 1610  CAIN.ueD2DTx[16].tcp  "sent ack"  ETV
vector 717  CAIN.ueD2DTx[16].nic.pdcpRrc  receivedPacketFromUpperLayer:vector(packetBytes)  ETV
attr interpolationmode  none
attr source  receivedPacketFromUpperLayer
vector 720  CAIN.ueD2DTx[16].nic.pdcpRrc  sentPacketToLowerLayer:vector(packetBytes)  ETV
attr interpolationmode  none
attr source  sentPacketToLowerLayer
vector 721  CAIN.ueD2DTx[16].nic.mac  receivedPacketFromUpperLayer:vector(packetBytes)  ETV
attr interpolationmode  none
attr source  receivedPacketFromUpperLayer
vector 730  CAIN.ueD2DTx[16].nic.mac  CainMessageSent:vector  ETV
attr interpolationmode  none
attr title  "# of Sent CAIN message, vector"
vector 724  CAIN.ueD2DTx[16].nic.mac  sentPacketToLowerLayer:vector(packetBytes)  ETV
attr interpolationmode  none
attr source  sentPacketToLowerLayer
vector 1645  CAIN.ueD2DTx[1].tcp  tcpRcvQueueBytes  ETV
vector 1632  CAIN.ueD2DTx[1].tcp  "advertised window"  ETV
vector 1631  CAIN.ueD2DTx[1].tcp  "receive window"  ETV
vector 1634  CAIN.ueD2DTx[1].tcp  "sent ack"  ETV
vector 237  CAIN.ueD2DTx[1].nic.pdcpRrc  receivedPacketFromUpperLayer:vector(packetBytes)  ETV
attr interpolationmode  none
attr source  receivedPacketFromUpperLayer
vector 240  CAIN.ueD2DTx[1].nic.pdcpRrc  sentPacketToLowerLayer:vector(packetBytes)  ETV
attr interpolationmode  none
attr source  sentPacketToLowerLayer
vector 241  CAIN.ueD2DTx[1].nic.mac  receivedPacketFromUpperLayer:vector(packetBytes)  ETV
attr interpolationmode  none
attr source  receivedPacketFromUpperLayer
vector 251  CAIN.ueD2DTx[1].nic.mac  CainHopMessageSent:vector  ETV
attr interpolationmode  none
attr title  "# of Sent CAIN hop message, vector"
vector 244  CAIN.ueD2DTx[1].nic.mac  sentPacketToLowerLayer:vector(packetBytes)  ETV
attr interpolationmode  none
attr source  sentPacketToLowerLayer
vector 1669  CAIN.ueD2DTx[9].tcp  tcpRcvQueueBytes  ETV
vector 1656  CAIN.ueD2DTx[9].tcp  "advertised window"  ETV
vector 1655  CAIN.ueD2DTx[9].tcp  "receive window"  ETV
vector 1658  CAIN.ueD2DTx[9].tcp  "sent ack"  ETV
vector 493  CAIN.ueD2DTx[9].nic.pdcpRrc  receivedPacketFromUpperLayer:vector(packetBytes)  ETV
attr interpolationmode  none
attr source  receivedPacketFromUpperLayer
vector 496  CAIN.ueD2DTx[9].nic.pdcpRrc  sentPacketToLowerLayer:vector(packetBytes)  ETV
attr interpolationmode  none
attr source  sentPacketToLowerLayer
vector 497  CAIN.ueD2DTx[9].nic.mac  receivedPacketFromUpperLayer:vector(packetBytes)  ETV
attr interpolationmode  none
attr source  receivedPacketFromUpperLayer
vector 169  CAIN.eNodeB1.nic.mac  racpkt:vector  ETV
attr interpolationmode  none
attr title  "eNB received racpkt message, vector"
vector 170  CAIN.eNodeB1.nic.mac  racDistanceSignal:vector  ETV
attr interpolationmode  none
attr title  "Rac distance to enb, vector"
vector 171  CAIN.eNodeB1.nic.mac  racServedDevsSignal:vector  ETV
attr interpolationmode  none
attr title  "# of devices served on rac arriavall, vector"
vector 156  CAIN.eNodeB1.nic.mac  sentPacketToLowerLayer:vector(packetBytes)  ETV
attr interpolationmode  none
attr source  sentPacketToLowerLayer
vector 1693  CAIN.ueD2DTx[10].tcp  tcpRcvQueueBytes  ETV
vector 1680  CAIN.ueD2DTx[10].tcp  "advertised window"  ETV
vector 1679  CAIN.ueD2DTx[10].tcp  "receive window"  ETV
vector 1682  CAIN.ueD2DTx[10].tcp  "sent ack"  ETV
vector 525  CAIN.ueD2DTx[10].nic.pdcpRrc  receivedPacketFromUpperLayer:vector(packetBytes)  ETV
attr interpolationmode  none
attr source  receivedPacketFromUpperLayer
vector 528  CAIN.ueD2DTx[10].nic.pdcpRrc  sentPacketToLowerLayer:vector(packetBytes)  ETV
attr interpolationmode  none
attr source  sentPacketToLowerLayer
vector 529  CAIN.ueD2DTx[10].nic.mac  receivedPacketFromUpperLayer:vector(packetBytes)  ETV
attr interpolationmode  none
attr source  receivedPacketFromUpperLayer
vector 538  CAIN.ueD2DTx[10].nic.mac  CainMessageSent:vector  ETV
attr interpolationmode  none
attr title  "# of Sent CAIN message, vector"
vector 1717  CAIN.ueD2DTx[17].tcp  tcpRcvQueueBytes  ETV
vector 1704  CAIN.ueD2DTx[17].tcp  "advertised window"  ETV
vector 1703  CAIN.ueD2DTx[17].tcp  "receive window"  ETV
vector 1706  CAIN.ueD2DTx[17].tcp  "sent ack"  ETV
vector 749  CAIN.ueD2DTx[17].nic.pdcpRrc  receivedPacketFromUpperLayer:vector(packetBytes)  ETV
attr interpolationmode  none
attr source  receivedPacketFromUpperLayer
vector 752  CAIN.ueD2DTx[17].nic.pdcpRrc  sentPacketToLowerLayer:vector(packetBytes)  ETV
attr interpolationmode  none
attr source  sentPacketToLowerLayer
vector 753  CAIN.ueD2DTx[17].nic.mac  receivedPacketFromUpperLayer:vector(packetBytes)  ETV
attr interpolationmode  none
attr source  receivedPacketFromUpperLayer
vector 1741  CAIN.ueD2DTx[0].tcp  tcpRcvQueueBytes  ETV
vector 1728  CAIN.ueD2DTx[0].tcp  "advertised window"  ETV
vector 1727  CAIN.ueD2DTx[0].tcp  "receive window"  ETV
vector 1730  CAIN.ueD2DTx[0].tcp  "sent ack"  ETV
vector 205  CAIN.ueD2DTx[0].nic.pdcpRrc  receivedPacketFromUpperLayer:vector(packetBytes)  ETV
attr interpolationmode  none
attr source  receivedPacketFromUpperLayer
vector 208  CAIN.ueD2DTx[0].nic.pdcpRrc  sentPacketToLowerLayer:vector(packetBytes)  ETV
attr interpolationmode  none
attr source  sentPacketToLowerLayer
vector 209  CAIN.ueD2DTx[0].nic.mac  receivedPacketFromUpperLayer:vector(packetBytes)  ETV
attr interpolationmode  none
attr source  receivedPacketFromUpperLayer
vector 212  CAIN.ueD2DTx[0].nic.mac  sentPacketToLowerLayer:vector(packetBytes)  ETV
attr interpolationmode  none
attr source  sentPacketToLowerLayer
vector 756  CAIN.ueD2DTx[17].nic.mac  sentPacketToLowerLayer:vector(packetBytes)  ETV
attr interpolationmode  none
attr source  sentPacketToLowerLayer
vector 210  CAIN.ueD2DTx[0].nic.mac  receivedPacketFromLowerLayer:vector(packetBytes)  ETV
attr interpolationmode  none
attr source  receivedPacketFromLowerLayer
vector 754  CAIN.ueD2DTx[17].nic.mac  receivedPacketFromLowerLayer:vector(packetBytes)  ETV
attr interpolationmode  none
attr source  receivedPacketFromLowerLayer
vector 1765  CAIN.ueD2DTx[19].tcp  tcpRcvQueueBytes  ETV
vector 1752  CAIN.ueD2DTx[19].tcp  "advertised window"  ETV
vector 1751  CAIN.ueD2DTx[19].tcp  "receive window"  ETV
vector 1754  CAIN.ueD2DTx[19].tcp  "sent ack"  ETV
vector 813  CAIN.ueD2DTx[19].nic.pdcpRrc  receivedPacketFromUpperLayer:vector(packetBytes)  ETV
attr interpolationmode  none
attr source  receivedPacketFromUpperLayer
vector 816  CAIN.ueD2DTx[19].nic.pdcpRrc  sentPacketToLowerLayer:vector(packetBytes)  ETV
attr interpolationmode  none
attr source  sentPacketToLowerLayer
vector 817  CAIN.ueD2DTx[19].nic.mac  receivedPacketFromUpperLayer:vector(packetBytes)  ETV
attr interpolationmode  none
attr source  receivedPacketFromUpperLayer
vector 1789  CAIN.ueD2DTx[5].tcp  tcpRcvQueueBytes  ETV
vector 1776  CAIN.ueD2DTx[5].tcp  "advertised window"  ETV
vector 1775  CAIN.ueD2DTx[5].tcp  "receive window"  ETV
vector 1778  CAIN.ueD2DTx[5].tcp  "sent ack"  ETV
vector 365  CAIN.ueD2DTx[5].nic.pdcpRrc  receivedPacketFromUpperLayer:vector(packetBytes)  ETV
attr interpolationmode  none
attr source  receivedPacketFromUpperLayer
vector 368  CAIN.ueD2DTx[5].nic.pdcpRrc  sentPacketToLowerLayer:vector(packetBytes)  ETV
attr interpolationmode  none
attr source  sentPacketToLowerLayer
vector 369  CAIN.ueD2DTx[5].nic.mac  receivedPacketFromUpperLayer:vector(packetBytes)  ETV
attr interpolationmode  none
attr source  receivedPacketFromUpperLayer
vector 379  CAIN.ueD2DTx[5].nic.mac  CainHopMessageSent:vector  ETV
attr interpolationmode  none
attr title  "# of Sent CAIN hop message, vector"
vector 372  CAIN.ueD2DTx[5].nic.mac  sentPacketToLowerLayer:vector(packetBytes)  ETV
attr interpolationmode  none
attr source  sentPacketToLowerLayer
vector 819  CAIN.ueD2DTx[19].nic.mac  sentPacketToUpperLayer:vector(packetBytes)  ETV
attr interpolationmode  none
attr source  sentPacketToUpperLayer
vector 117  CAIN.eNodeB.pppIf.queue  rcvdPk:vector(packetBytes)  ETV
attr interpolationmode  none
attr title  "received packets, vector(packetBytes)"
vector 119  CAIN.eNodeB.pppIf.queue  queueingTime:vector  ETV
attr interpolationmode  none
attr title  "queueing time, vector"
vector 126  CAIN.eNodeB.pppIf.ppp  rcvdPkFromHL:vector(packetBytes)  ETV
attr interpolationmode  none
attr source  packetReceivedFromUpper
attr title  "packets received from higher layer, vector(packetBytes)"
vector 122  CAIN.eNodeB.pppIf.ppp  txPk:vector(packetBytes)  ETV
attr interpolationmode  none
attr source  packetSentToLower
attr title  "packets transmitted, vector(packetBytes)"
vector 59  CAIN.pgw.ppp[0].ppp  rxPkOk:vector(packetBytes)  ETV
attr interpolationmode  none
attr source  rxPkOk
attr title  "packets received OK, vector(packetBytes)"
vector 63  CAIN.pgw.ppp[0].ppp  passedUpPk:vector(packetBytes)  ETV
attr interpolationmode  none
attr source  packetSentToUpper
attr title  "packets passed to higher layer, vector(packetBytes)"
vector 44  CAIN.pgw.udp  rcvdPk:vector(packetBytes)  ETV
attr interpolationmode  none
attr source  rcvdPk
attr title  "packets received, vector(packetBytes)"
vector 45  CAIN.pgw.udp  passedUpPk:vector(count)  ETV
attr interpolationmode  none
attr title  "packets passed up, vector(count)"
vector 43  CAIN.pgw.udp  sentPk:vector(packetBytes)  ETV
attr interpolationmode  none
attr source  sentPk
attr title  "packets sent, vector(packetBytes)"
vector 64  CAIN.pgw.ppp[1].queue  rcvdPk:vector(packetBytes)  ETV
attr interpolationmode  none
attr title  "received packets, vector(packetBytes)"
vector 66  CAIN.pgw.ppp[1].queue  queueingTime:vector  ETV
attr interpolationmode  none
attr title  "queueing time, vector"
vector 73  CAIN.pgw.ppp[1].ppp  rcvdPkFromHL:vector(packetBytes)  ETV
attr interpolationmode  none
attr source  packetReceivedFromUpper
attr title  "packets received from higher layer, vector(packetBytes)"
vector 69  CAIN.pgw.ppp[1].ppp  txPk:vector(packetBytes)  ETV
attr interpolationmode  none
attr source  packetSentToLower
attr title  "packets transmitted, vector(packetBytes)"
vector 181  CAIN.eNodeB1.pppIf.ppp  rxPkOk:vector(packetBytes)  ETV
attr interpolationmode  none
attr source  rxPkOk
attr title  "packets received OK, vector(packetBytes)"
vector 185  CAIN.eNodeB1.pppIf.ppp  passedUpPk:vector(packetBytes)  ETV
attr interpolationmode  none
attr source  packetSentToUpper
attr title  "packets passed to higher layer, vector(packetBytes)"
vector 157  CAIN.eNodeB1.nic.mac  measuredItbs:vector  ETV
attr source  measuredItbs
attr title  "TBS index, vector"
attr unit  ""
vector 155  CAIN.eNodeB1.nic.mac  sentPacketToUpperLayer:vector(packetBytes)  ETV
attr interpolationmode  none
attr source  sentPacketToUpperLayer
vector 228  CAIN.ueD2DTx[0].nic.phy  averageCqiDlvect:vector  ETV
attr source  averageCqiDlvect
attr title  "Average Cqi reported in DL, vector"
attr unit  cqi
vector 211  CAIN.ueD2DTx[0].nic.mac  sentPacketToUpperLayer:vector(packetBytes)  ETV
attr interpolationmode  none
attr source  sentPacketToUpperLayer
vector 206  CAIN.ueD2DTx[0].nic.pdcpRrc  receivedPacketFromLowerLayer:vector(packetBytes)  ETV
attr interpolationmode  none
attr source  receivedPacketFromLowerLayer
vector 207  CAIN.ueD2DTx[0].nic.pdcpRrc  sentPacketToUpperLayer:vector(packetBytes)  ETV
attr interpolationmode  none
attr source  sentPacketToUpperLayer
vector 626  CAIN.ueD2DTx[13].nic.mac  receivedPacketFromLowerLayer:vector(packetBytes)  ETV
attr interpolationmode  none
attr source  receivedPacketFromLowerLayer
vector 627  CAIN.ueD2DTx[13].nic.mac  sentPacketToUpperLayer:vector(packetBytes)  ETV
attr interpolationmode  none
attr source  sentPacketToUpperLayer
vector 173  CAIN.eNodeB1.nic.phy  averageCqiUlvect:vector  ETV
attr source  averageCqiUlvect
attr title  "Average Cqi reported in UL, vector"
attr unit  cqi
vector 666  CAIN.ueD2DTx[14].nic.mac  CainMessageSent:vector  ETV
attr interpolationmode  none
attr title  "# of Sent CAIN message, vector"
vector 602  CAIN.ueD2DTx[12].nic.mac  CainMessageSent:vector  ETV
attr interpolationmode  none
attr title  "# of Sent CAIN message, vector"
vector 731  CAIN.ueD2DTx[16].nic.mac  CainHopMessageSent:vector  ETV
attr interpolationmode  none
attr title  "# of Sent CAIN hop message, vector"
vector 402  CAIN.ueD2DTx[6].nic.mac  receivedPacketFromLowerLayer:vector(packetBytes)  ETV
attr interpolationmode  none
attr source  receivedPacketFromLowerLayer
vector 150  CAIN.eNodeB1.nic.pdcpRrc  receivedPacketFromLowerLayer:vector(packetBytes)  ETV
attr interpolationmode  none
attr source  receivedPacketFromLowerLayer
vector 151  CAIN.eNodeB1.nic.pdcpRrc  sentPacketToUpperLayer:vector(packetBytes)  ETV
attr interpolationmode  none
attr source  sentPacketToUpperLayer
vector 403  CAIN.ueD2DTx[6].nic.mac  sentPacketToUpperLayer:vector(packetBytes)  ETV
attr interpolationmode  none
attr source  sentPacketToUpperLayer
vector 314  CAIN.ueD2DTx[3].nic.mac  CainMessageSent:vector  ETV
attr interpolationmode  none
attr title  "# of Sent CAIN message, vector"
vector 499  CAIN.ueD2DTx[9].nic.mac  sentPacketToUpperLayer:vector(packetBytes)  ETV
attr interpolationmode  none
attr source  sentPacketToUpperLayer
vector 755  CAIN.ueD2DTx[17].nic.mac  sentPacketToUpperLayer:vector(packetBytes)  ETV
attr interpolationmode  none
attr source  sentPacketToUpperLayer
8	0	0	0
9	0	0	0
24	0	0	0
25	0	0	0
35	0	0	0
36	0	0	0
43	6701	0.1100001132	52
43	150997	3.0300001132	52
43	151687	3.0410001132	52
43	151835	3.0430001132	52
44	6699	0.1100001132	52
44	150995	3.0300001132	52
44	151685	3.0410001132	52
44	151833	3.0430001132	52
45	6699	0.1100001132	1
45	150995	3.0300001132	2
45	151685	3.0410001132	3
45	151833	3.0430001132	4
56	0	0	0
57	0	0	0
59	6697	0.1100001132	79
59	150993	3.0300001132	79
59	151683	3.0410001132	79
59	151831	3.0430001132	79
63	6697	0.1100001132	72
63	150993	3.0300001132	72
63	151683	3.0410001132	72
63	151831	3.0430001132	72
64	6703	0.1100001132	72
64	150999	3.0300001132	72
64	151689	3.0410001132	72
64	151837	3.0430001132	72
66	6703	0.1100001132	0
66	150999	3.0300001132	0
66	151689	3.0410001132	0
66	151837	3.0430001132	0
67	0	0	0
68	0	0	0
68	6704	0.1100001132	1
68	6705	0.1100001764	0
68	151000	3.0300001132	1
68	151001	3.0300001764	0
68	151690	3.0410001132	1
68	151691	3.0410001764	0
68	151838	3.0430001132	1
68	151839	3.0430001764	0
69	6704	0.1100001132	79
69	151000	3.0300001132	79
69	151690	3.0410001132	79
69	151838	3.0430001132	79
73	6704	0.1100001132	72
73	151000	3.0300001132	72
73	151690	3.0410001132	72
73	151838	3.0430001132	72
78	0	0	0
79	0	0	0
86	1701	0.03	52
86	2355	0.041	52
86	2534	0.043	52
86	6611	0.11	52
86	150947	3.03	52
86	151646	3.041	52
86	151787	3.043	52
92	1694	0.03	45
92	2348	0.041	45
92	2527	0.043	45
92	6607	0.11	45
92	150943	3.03	45
92	151642	3.041	45
92	151783	3.043	45
93	1694	0.03	44
93	2348	0.041	44
93	2527	0.043	44
93	6607	0.11	44
93	150943	3.03	44
93	151642	3.041	44
93	151783	3.043	44
96	378	0.002	0
96	381	0.002	0
96	384	0.002	0
96	387	0.002	0
96	390	0.002	0
96	393	0.002	0
96	396	0.002	0
96	399	0.002	0
96	402	0.002	0
96	405	0.002	0
96	408	0.002	0
96	411	0.002	0
96	414	0.002	0
96	417	0.002	0
96	420	0.002	0
96	423	0.002	0
96	426	0.002	0
96	429	0.002	0
96	432	0.002	0
96	435	0.002	0
96	739	0.008	0
96	742	0.008	0
96	745	0.008	0
96	748	0.008	0
96	751	0.008	0
96	754	0.008	0
96	757	0.008	0
96	760	0.008	0
96	983	0.014	0
96	986	0.014	0
96	989	0.014	0
96	992	0.014	0
96	995	0.014	0
96	998	0.014	0
96	1001	0.014	0
96	1004	0.014	0
96	1242	0.02	0
96	1245	0.02	0
96	1248	0.02	0
96	1251	0.02	0
96	1254	0.02	0
96	1257	0.02	0
96	1260	0.02	0
96	1263	0.02	0
96	1266	0.02	0
96	1356	0.023	0
96	1491	0.025	0
96	1524	0.026	0
96	1527	0.026	0
96	1530	0.026	0
96	1533	0.026	0
96	1536	0.026	0
96	1539	0.026	0
96	1542	0.026	0
96	1545	0.026	0
96	1585	0.027	0
96	1587	0.027	0
96	1664	0.029	0
96	1737	0.03	0
96	1834	0.031	0
96	1867	0.032	0
96	1870	0.032	0
96	1873	0.032	0
96	1876	0.032	0
96	1879	0.032	0
96	1882	0.032	0
96	1885	0.032	0
96	1888	0.032	0
96	1891	0.032	0
96	1896	0.032	0
96	1965	0.034	0
96	1971	0.034	0
96	2021	0.035	0
96	2070	0.036	0
96	2076	0.036	0
96	2181	0.037	0
96	2212	0.038	0
96	2215	0.038	0
96	2218	0.038	0
96	2221	0.038	0
96	2224	0.038	0
96	2227	0.038	0
96	2230	0.038	0
96	2233	0.038	0
96	2247	0.038	0
96	2251	0.038	0
96	2290	0.039	0
96	2323	0.04	0
96	2328	0.04	0
96	2333	0.04	0
96	2387	0.041	0
96	2457	0.042	0
96	2463	0.042	0
96	2465	0.042	0
96	2573	0.043	0
96	2578	0.043	0
96	2612	0.044	0
96	2615	0.044	0
96	2618	0.044	0
96	2621	0.044	0
96	2624	0.044	0
96	2627	0.044	0
96	2630	0.044	0
96	2633	0.044	0
96	2646	0.044	0
96	2685	0.045	0
96	2690	0.045	0
96	2721	0.046	0
96	2760	0.047	0
96	2766	0.047	0
96	2768	0.047	0
96	2824	0.048	0
96	2829	0.048	0
96	2927	0.049	0
96	2960	0.05	0
96	2963	0.05	0
96	2966	0.05	0
96	2969	0.05	0
96	2972	0.05	0
96	2975	0.05	0
96	2978	0.05	0
96	2981	0.05	0
96	2993	0.05	0
96	2998	0.05	0
96	3001	0.05	0
96	3028	0.051	0
96	3034	0.051	0
96	3075	0.052	0
96	3081	0.052	0
96	3083	0.052	0
96	3119	0.053	0
96	3124	0.053	0
96	3178	0.054	0
96	3276	0.055	0
96	3281	0.055	0
96	3284	0.055	0
96	3320	0.056	0
96	3323	0.056	0
96	3326	0.056	0
96	3329	0.056	0
96	3332	0.056	0
96	3335	0.056	0
96	3338	0.056	0
96	3341	0.056	0
96	3344	0.056	0
96	3350	0.056	0
96	3458	0.057	0
96	3460	0.057	0
96	3573	0.058	0
96	3576	0.058	0
96	3579	0.058	0
96	3661	0.06	0
96	3663	0.06	0
96	3711	0.061	0
96	3740	0.062	0
96	3743	0.062	0
96	3754	0.062	0
96	3757	0.062	0
96	3772	0.062	0
96	3775	0.062	0
96	3780	0.062	0
96	3783	0.062	0
96	3867	0.063	0
96	3870	0.063	0
96	3873	0.063	0
96	3950	0.065	0
96	3952	0.065	0
96	4003	0.066	0
96	4088	0.068	0
96	4091	0.068	0
96	4102	0.068	0
96	4105	0.068	0
96	4120	0.068	0
96	4123	0.068	0
96	4128	0.068	0
96	4131	0.068	0
96	4134	0.068	0
96	4137	0.068	0
96	4140	0.068	0
96	4143	0.068	0
96	4255	0.07	0
96	4257	0.07	0
96	4259	0.07	0
96	4290	0.071	0
96	4393	0.073	0
96	4396	0.073	0
96	4399	0.073	0
96	4402	0.073	0
96	4431	0.074	0
96	4434	0.074	0
96	4445	0.074	0
96	4448	0.074	0
96	4463	0.074	0
96	4466	0.074	0
96	4471	0.074	0
96	4474	0.074	0
96	4562	0.075	0
96	4564	0.075	0
96	4566	0.075	0
96	4597	0.076	0
96	4680	0.078	0
96	4683	0.078	0
96	4686	0.078	0
96	4689	0.078	0
96	4781	0.08	0
96	4784	0.08	0
96	4795	0.08	0
96	4798	0.08	0
96	4813	0.08	0
96	4816	0.08	0
96	4821	0.08	0
96	4824	0.08	0
96	4830	0.08	0
96	4832	0.08	0
96	4834	0.08	0
96	4916	0.081	0
96	4990	0.083	0
96	4993	0.083	0
96	4996	0.083	0
96	4999	0.083	0
96	5106	0.085	0
96	5109	0.085	0
96	5111	0.085	0
96	5113	0.085	0
96	5143	0.086	0
96	5146	0.086	0
96	5157	0.086	0
96	5160	0.086	0
96	5175	0.086	0
96	5178	0.086	0
96	5183	0.086	0
96	5186	0.086	0
96	5192	0.086	0
96	5282	0.087	0
96	5308	0.088	0
96	5311	0.088	0
96	5314	0.088	0
96	5317	0.088	0
96	5425	0.09	0
96	5427	0.09	0
96	5429	0.09	0
96	5482	0.091	0
96	5513	0.092	0
96	5516	0.092	0
96	5527	0.092	0
96	5530	0.092	0
96	5545	0.092	0
96	5548	0.092	0
96	5553	0.092	0
96	5556	0.092	0
96	5643	0.093	0
96	5646	0.093	0
96	5649	0.093	0
96	5652	0.093	0
96	5716	0.095	0
96	5718	0.095	0
96	5720	0.095	0
96	5771	0.096	0
96	5874	0.098	0
96	5877	0.098	0
96	5888	0.098	0
96	5891	0.098	0
96	5906	0.098	0
96	5909	0.098	0
96	5914	0.098	0
96	5917	0.098	0
96	5923	0.098	0
96	5926	0.098	0
96	5929	0.098	0
96	5932	0.098	0
96	5935	0.098	0
96	6071	0.1	0
96	6074	0.1	0
96	6076	0.1	0
96	6078	0.1	0
96	6115	0.101	0
96	6172	0.102	0
96	6180	0.102	0
96	6226	0.103	0
96	6229	0.103	0
96	6232	0.103	0
96	6235	0.103	0
96	6238	0.103	0
96	6268	0.104	0
96	6271	0.104	0
96	6282	0.104	0
96	6285	0.104	0
96	6300	0.104	0
96	6303	0.104	0
96	6308	0.104	0
96	6311	0.104	0
96	6407	0.105	0
96	6409	0.105	0
96	6411	0.105	0
96	6452	0.106	0
96	6486	0.107	0
96	6538	0.108	0
96	6541	0.108	0
96	6544	0.108	0
96	6547	0.108	0
96	6642	0.11	0
96	6645	0.11	0
96	6656	0.11	0
96	6659	0.11	0
96	6674	0.11	0
96	6677	0.11	0
96	6682	0.11	0
96	6685	0.11	0
96	6691	0.11	0
96	6693	0.11	0
96	6695	0.11	0
96	6754	0.111	0
96	6820	0.113	0
96	6823	0.113	0
96	6826	0.113	0
96	6829	0.113	0
96	6940	0.115	0
96	6942	0.115	0
96	6944	0.115	0
96	6974	0.116	0
96	6977	0.116	0
96	6988	0.116	0
96	6991	0.116	0
96	7006	0.116	0
96	7009	0.116	0
96	7014	0.116	0
96	7017	0.116	0
96	7025	0.116	0
96	7088	0.118	0
96	7091	0.118	0
96	7094	0.118	0
96	7097	0.118	0
96	7181	0.12	0
96	7183	0.12	0
96	7185	0.12	0
96	7236	0.121	0
96	7265	0.122	0
96	7268	0.122	0
96	7279	0.122	0
96	7282	0.122	0
96	7297	0.122	0
96	7300	0.122	0
96	7305	0.122	0
96	7308	0.122	0
96	7347	0.123	0
96	7350	0.123	0
96	7353	0.123	0
96	7356	0.123	0
96	7420	0.125	0
96	7422	0.125	0
96	7424	0.125	0
96	7475	0.126	0
96	7560	0.128	0
96	7563	0.128	0
96	7574	0.128	0
96	7577	0.128	0
96	7592	0.128	0
96	7595	0.128	0
96	7600	0.128	0
96	7603	0.128	0
96	7606	0.128	0
96	7609	0.128	0
96	7612	0.128	0
96	7615	0.128	0
96	7679	0.13	0
96	7681	0.13	0
96	7683	0.13	0
96	7714	0.131	0
96	7817	0.133	0
96	7820	0.133	0
96	7823	0.133	0
96	7826	0.133	0
96	7855	0.134	0
96	7858	0.134	0
96	7869	0.134	0
96	7872	0.134	0
96	7887	0.134	0
96	7890	0.134	0
96	7895	0.134	0
96	7898	0.134	0
96	7938	0.135	0
96	7940	0.135	0
96	7942	0.135	0
96	7973	0.136	0
96	8056	0.138	0
96	8059	0.138	0
96	8062	0.138	0
96	8065	0.138	0
96	8148	0.14	0
96	8151	0.14	0
96	8162	0.14	0
96	8165	0.14	0
96	8180	0.14	0
96	8183	0.14	0
96	8188	0.14	0
96	8191	0.14	0
96	8197	0.14	0
96	8199	0.14	0
96	8201	0.14	0
96	8232	0.141	0
96	8295	0.143	0
96	8298	0.143	0
96	8301	0.143	0
96	8304	0.143	0
96	8408	0.145	0
96	8410	0.145	0
96	8412	0.145	0
96	8442	0.146	0
96	8445	0.146	0
96	8456	0.146	0
96	8459	0.146	0
96	8474	0.146	0
96	8477	0.146	0
96	8482	0.146	0
96	8485	0.146	0
96	8491	0.146	0
96	8554	0.148	0
96	8557	0.148	0
96	8560	0.148	0
96	8563	0.148	0
96	8647	0.15	0
96	8649	0.15	0
96	8651	0.15	0
96	8702	0.151	0
96	8731	0.152	0
96	8734	0.152	0
96	8745	0.152	0
96	8748	0.152	0
96	8763	0.152	0
96	8766	0.152	0
96	8771	0.152	0
96	8774	0.152	0
96	8813	0.153	0
96	8816	0.153	0
96	8819	0.153	0
96	8822	0.153	0
96	8886	0.155	0
96	8888	0.155	0
96	8890	0.155	0
96	8941	0.156	0
96	9026	0.158	0
96	9029	0.158	0
96	9040	0.158	0
96	9043	0.158	0
96	9058	0.158	0
96	9061	0.158	0
96	9066	0.158	0
96	9069	0.158	0
96	9072	0.158	0
96	9075	0.158	0
96	9078	0.158	0
96	9081	0.158	0
96	9145	0.16	0
96	9147	0.16	0
96	9149	0.16	0
96	9180	0.161	0
96	9283	0.163	0
96	9286	0.163	0
96	9289	0.163	0
96	9292	0.163	0
96	9321	0.164	0
96	9324	0.164	0
96	9335	0.164	0
96	9338	0.164	0
96	9353	0.164	0
96	9356	0.164	0
96	9361	0.164	0
96	9364	0.164	0
96	9404	0.165	0
96	9406	0.165	0
96	9408	0.165	0
96	9439	0.166	0
96	9522	0.168	0
96	9525	0.168	0
96	9528	0.168	0
96	9531	0.168	0
96	9614	0.17	0
96	9617	0.17	0
96	9628	0.17	0
96	9631	0.17	0
96	9646	0.17	0
96	9649	0.17	0
96	9654	0.17	0
96	9657	0.17	0
96	9663	0.17	0
96	9665	0.17	0
96	9667	0.17	0
96	9698	0.171	0
96	9761	0.173	0
96	9764	0.173	0
96	9767	0.173	0
96	9770	0.173	0
96	9874	0.175	0
96	9876	0.175	0
96	9878	0.175	0
96	9908	0.176	0
96	9911	0.176	0
96	9922	0.176	0
96	9925	0.176	0
96	9940	0.176	0
96	9943	0.176	0
96	9948	0.176	0
96	9951	0.176	0
96	9957	0.176	0
96	10020	0.178	0
96	10023	0.178	0
96	10026	0.178	0
96	10029	0.178	0
96	10113	0.18	0
96	10115	0.18	0
96	10117	0.18	0
96	10168	0.181	0
96	10197	0.182	0
96	10200	0.182	0
96	10211	0.182	0
96	10214	0.182	0
96	10229	0.182	0
96	10232	0.182	0
96	10237	0.182	0
96	10240	0.182	0
96	10279	0.183	0
96	10282	0.183	0
96	10285	0.183	0
96	10288	0.183	0
96	10352	0.185	0
96	10354	0.185	0
96	10356	0.185	0
96	10407	0.186	0
96	10492	0.188	0
96	10495	0.188	0
96	10506	0.188	0
96	10509	0.188	0
96	10524	0.188	0
96	10527	0.188	0
96	10532	0.188	0
96	10535	0.188	0
96	10538	0.188	0
96	10541	0.188	0
96	10544	0.188	0
96	10547	0.188	0
96	10611	0.19	0
96	10613	0.19	0
96	10615	0.19	0
96	10646	0.191	0
96	10749	0.193	0
96	10752	0.193	0
96	10755	0.193	0
96	10758	0.193	0
96	10787	0.194	0
96	10790	0.194	0
96	10801	0.194	0
96	10804	0.194	0
96	10819	0.194	0
96	10822	0.194	0
96	10827	0.194	0
96	10830	0.194	0
96	10870	0.195	0
96	10872	0.195	0
96	10874	0.195	0
96	10905	0.196	0
96	10988	0.198	0
96	10991	0.198	0
96	10994	0.198	0
96	10997	0.198	0
96	11096	0.2	0
96	11099	0.2	0
96	11110	0.2	0
96	11113	0.2	0
96	11128	0.2	0
96	11131	0.2	0
96	11136	0.2	0
96	11139	0.2	0
96	11145	0.2	0
96	11147	0.2	0
96	11149	0.2	0
96	11180	0.201	0
96	11243	0.203	0
96	11246	0.203	0
96	11249	0.203	0
96	11252	0.203	0
96	11356	0.205	0
96	11358	0.205	0
96	11360	0.205	0
96	11390	0.206	0
96	11393	0.206	0
96	11404	0.206	0
96	11407	0.206	0
96	11422	0.206	0
96	11425	0.206	0
96	11430	0.206	0
96	11433	0.206	0
96	11439	0.206	0
96	11997	0.208	0
96	12000	0.208	0
96	12003	0.208	0
96	12006	0.208	0
96	12090	0.21	0
96	12092	0.21	0
96	12094	0.21	0
96	12145	0.211	0
96	12174	0.212	0
96	12177	0.212	0
96	12188	0.212	0
96	12191	0.212	0
96	12206	0.212	0
96	12209	0.212	0
96	12214	0.212	0
96	12217	0.212	0
96	12256	0.213	0
96	12259	0.213	0
96	12262	0.213	0
96	12265	0.213	0
96	12329	0.215	0
96	12331	0.215	0
96	12333	0.215	0
96	12384	0.216	0
96	12469	0.218	0
96	12472	0.218	0
96	12483	0.218	0
96	12486	0.218	0
96	12501	0.218	0
96	12504	0.218	0
96	12509	0.218	0
96	12512	0.218	0
96	12515	0.218	0
96	12518	0.218	0
96	12521	0.218	0
96	12524	0.218	0
96	12588	0.22	0
96	12590	0.22	0
96	12592	0.22	0
96	12623	0.221	0
96	12726	0.223	0
96	12729	0.223	0
96	12732	0.223	0
96	12735	0.223	0
96	12764	0.224	0
96	12767	0.224	0
96	12778	0.224	0
96	12781	0.224	0
96	12796	0.224	0
96	12799	0.224	0
96	12804	0.224	0
96	12807	0.224	0
96	12847	0.225	0
96	12849	0.225	0
96	12851	0.225	0
96	12882	0.226	0
96	12965	0.228	0
96	12968	0.228	0
96	12971	0.228	0
96	12974	0.228	0
96	13057	0.23	0
96	13060	0.23	0
96	13071	0.23	0
96	13074	0.23	0
96	13089	0.23	0
96	13092	0.23	0
96	13097	0.23	0
96	13100	0.23	0
96	13106	0.23	0
96	13108	0.23	0
96	13110	0.23	0
96	13141	0.231	0
96	13204	0.233	0
96	13207	0.233	0
96	13210	0.233	0
96	13213	0.233	0
96	13317	0.235	0
96	13319	0.235	0
96	13321	0.235	0
96	13351	0.236	0
96	13354	0.236	0
96	13365	0.236	0
96	13368	0.236	0
96	13383	0.236	0
96	13386	0.236	0
96	13391	0.236	0
96	13394	0.236	0
96	13400	0.236	0
96	13463	0.238	0
96	13466	0.238	0
96	13469	0.238	0
96	13472	0.238	0
96	13556	0.24	0
96	13558	0.24	0
96	13560	0.24	0
96	13611	0.241	0
96	13640	0.242	0
96	13643	0.242	0
96	13654	0.242	0
96	13657	0.242	0
96	13672	0.242	0
96	13675	0.242	0
96	13680	0.242	0
96	13683	0.242	0
96	13722	0.243	0
96	13725	0.243	0
96	13728	0.243	0
96	13731	0.243	0
96	13795	0.245	0
96	13797	0.245	0
96	13799	0.245	0
96	13850	0.246	0
96	13935	0.248	0
96	13938	0.248	0
96	13949	0.248	0
96	13952	0.248	0
96	13967	0.248	0
96	13970	0.248	0
96	13975	0.248	0
96	13978	0.248	0
96	13981	0.248	0
96	13984	0.248	0
96	13987	0.248	0
96	13990	0.248	0
96	14054	0.25	0
96	14056	0.25	0
96	14058	0.25	0
96	14089	0.251	0
96	14192	0.253	0
96	14195	0.253	0
96	14198	0.253	0
96	14201	0.253	0
96	14230	0.254	0
96	14233	0.254	0
96	14244	0.254	0
96	14247	0.254	0
96	14262	0.254	0
96	14265	0.254	0
96	14270	0.254	0
96	14273	0.254	0
96	14313	0.255	0
96	14315	0.255	0
96	14317	0.255	0
96	14348	0.256	0
96	14926	0.258	0
96	14929	0.258	0
96	14932	0.258	0
96	14935	0.258	0
96	15018	0.26	0
96	15021	0.26	0
96	15032	0.26	0
96	15035	0.26	0
96	15050	0.26	0
96	15053	0.26	0
96	15058	0.26	0
96	15061	0.26	0
96	15067	0.26	0
96	15069	0.26	0
96	15071	0.26	0
96	15102	0.261	0
96	15165	0.263	0
96	15168	0.263	0
96	15171	0.263	0
96	15174	0.263	0
96	15278	0.265	0
96	15280	0.265	0
96	15282	0.265	0
96	15312	0.266	0
96	15315	0.266	0
96	15326	0.266	0
96	15329	0.266	0
96	15344	0.266	0
96	15347	0.266	0
96	15352	0.266	0
96	15355	0.266	0
96	15361	0.266	0
96	15424	0.268	0
96	15427	0.268	0
96	15430	0.268	0
96	15433	0.268	0
96	15517	0.27	0
96	15519	0.27	0
96	15521	0.27	0
96	15572	0.271	0
96	15601	0.272	0
96	15604	0.272	0
96	15615	0.272	0
96	15618	0.272	0
96	15633	0.272	0
96	15636	0.272	0
96	15641	0.272	0
96	15644	0.272	0
96	15683	0.273	0
96	15686	0.273	0
96	15689	0.273	0
96	15692	0.273	0
96	15756	0.275	0
96	15758	0.275	0
96	15760	0.275	0
96	15811	0.276	0
96	15896	0.278	0
96	15899	0.278	0
96	15910	0.278	0
96	15913	0.278	0
96	15928	0.278	0
96	15931	0.278	0
96	15936	0.278	0
96	15939	0.278	0
96	15942	0.278	0
96	15945	0.278	0
96	15948	0.278	0
96	15951	0.278	0
96	16015	0.28	0
96	16017	0.28	0
96	16019	0.28	0
96	16050	0.281	0
96	16153	0.283	0
96	16156	0.283	0
96	16159	0.283	0
96	16162	0.283	0
96	16191	0.284	0
96	16194	0.284	0
96	16205	0.284	0
96	16208	0.284	0
96	16223	0.284	0
96	16226	0.284	0
96	16231	0.284	0
96	16234	0.284	0
96	16274	0.285	0
96	16276	0.285	0
96	16278	0.285	0
96	16309	0.286	0
96	16392	0.288	0
96	16395	0.288	0
96	16398	0.288	0
96	16401	0.288	0
96	16484	0.29	0
96	16487	0.29	0
96	16498	0.29	0
96	16501	0.29	0
96	16516	0.29	0
96	16519	0.29	0
96	16524	0.29	0
96	16527	0.29	0
96	16533	0.29	0
96	16535	0.29	0
96	16537	0.29	0
96	16568	0.291	0
96	16631	0.293	0
96	16634	0.293	0
96	16637	0.293	0
96	16640	0.293	0
96	16744	0.295	0
96	16746	0.295	0
96	16748	0.295	0
96	16778	0.296	0
96	16781	0.296	0
96	16792	0.296	0
96	16795	0.296	0
96	16810	0.296	0
96	16813	0.296	0
96	16818	0.296	0
96	16821	0.296	0
96	16827	0.296	0
96	16890	0.298	0
96	16893	0.298	0
96	16896	0.298	0
96	16899	0.298	0
96	16999	0.3	0
96	17001	0.3	0
96	17003	0.3	0
96	17054	0.301	0
96	17083	0.302	0
96	17086	0.302	0
96	17097	0.302	0
96	17100	0.302	0
96	17115	0.302	0
96	17118	0.302	0
96	17123	0.302	0
96	17126	0.302	0
96	17165	0.303	0
96	17168	0.303	0
96	17171	0.303	0
96	17174	0.303	0
96	17238	0.305	0
96	17240	0.305	0
96	17242	0.305	0
96	17293	0.306	0
96	17378	0.308	0
96	17381	0.308	0
96	17392	0.308	0
96	17395	0.308	0
96	17410	0.308	0
96	17413	0.308	0
96	17418	0.308	0
96	17421	0.308	0
96	17424	0.308	0
96	17427	0.308	0
96	17430	0.308	0
96	17433	0.308	0
96	17497	0.31	0
96	17499	0.31	0
96	17501	0.31	0
96	17532	0.311	0
96	17635	0.313	0
96	17638	0.313	0
96	17641	0.313	0
96	17644	0.313	0
96	17673	0.314	0
96	17676	0.314	0
96	17687	0.314	0
96	17690	0.314	0
96	17705	0.314	0
96	17708	0.314	0
96	17713	0.314	0
96	17716	0.314	0
96	17756	0.315	0
96	17758	0.315	0
96	17760	0.315	0
96	17791	0.316	0
96	17874	0.318	0
96	17877	0.318	0
96	17880	0.318	0
96	17883	0.318	0
96	17966	0.32	0
96	17969	0.32	0
96	17980	0.32	0
96	17983	0.32	0
96	17998	0.32	0
96	18001	0.32	0
96	18006	0.32	0
96	18009	0.32	0
96	18015	0.32	0
96	18017	0.32	0
96	18019	0.32	0
96	18050	0.321	0
96	18113	0.323	0
96	18116	0.323	0
96	18119	0.323	0
96	18122	0.323	0
96	18226	0.325	0
96	18228	0.325	0
96	18230	0.325	0
96	18260	0.326	0
96	18263	0.326	0
96	18274	0.326	0
96	18277	0.326	0
96	18292	0.326	0
96	18295	0.326	0
96	18300	0.326	0
96	18303	0.326	0
96	18309	0.326	0
96	18372	0.328	0
96	18375	0.328	0
96	18378	0.328	0
96	18381	0.328	0
96	18465	0.33	0
96	18467	0.33	0
96	18469	0.33	0
96	18520	0.331	0
96	18549	0.332	0
96	18552	0.332	0
96	18563	0.332	0
96	18566	0.332	0
96	18581	0.332	0
96	18584	0.332	0
96	18589	0.332	0
96	18592	0.332	0
96	18631	0.333	0
96	18634	0.333	0
96	18637	0.333	0
96	18640	0.333	0
96	18704	0.335	0
96	18706	0.335	0
96	18708	0.335	0
96	18759	0.336	0
96	18844	0.338	0
96	18847	0.338	0
96	18858	0.338	0
96	18861	0.338	0
96	18876	0.338	0
96	18879	0.338	0
96	18884	0.338	0
96	18887	0.338	0
96	18890	0.338	0
96	18893	0.338	0
96	18896	0.338	0
96	18899	0.338	0
96	18963	0.34	0
96	18965	0.34	0
96	18967	0.34	0
96	18998	0.341	0
96	19101	0.343	0
96	19104	0.343	0
96	19107	0.343	0
96	19110	0.343	0
96	19139	0.344	0
96	19142	0.344	0
96	19153	0.344	0
96	19156	0.344	0
96	19171	0.344	0
96	19174	0.344	0
96	19179	0.344	0
96	19182	0.344	0
96	19222	0.345	0
96	19224	0.345	0
96	19226	0.345	0
96	19257	0.346	0
96	19340	0.348	0
96	19343	0.348	0
96	19346	0.348	0
96	19349	0.348	0
96	19432	0.35	0
96	19435	0.35	0
96	19446	0.35	0
96	19449	0.35	0
96	19464	0.35	0
96	19467	0.35	0
96	19472	0.35	0
96	19475	0.35	0
96	19481	0.35	0
96	19483	0.35	0
96	19485	0.35	0
96	19516	0.351	0
96	19579	0.353	0
96	19582	0.353	0
96	19585	0.353	0
96	19588	0.353	0
96	19692	0.355	0
96	19694	0.355	0
96	19696	0.355	0
96	19726	0.356	0
96	19729	0.356	0
96	19740	0.356	0
96	19743	0.356	0
96	19758	0.356	0
96	19761	0.356	0
96	19766	0.356	0
96	19769	0.356	0
96	19775	0.356	0
96	19838	0.358	0
96	19841	0.358	0
96	19844	0.358	0
96	19847	0.358	0
96	19931	0.36	0
96	19933	0.36	0
96	19935	0.36	0
96	19986	0.361	0
96	20015	0.362	0
96	20018	0.362	0
96	20029	0.362	0
96	20032	0.362	0
96	20047	0.362	0
96	20050	0.362	0
96	20055	0.362	0
96	20058	0.362	0
96	20097	0.363	0
96	20100	0.363	0
96	20103	0.363	0
96	20106	0.363	0
96	20170	0.365	0
96	20172	0.365	0
96	20174	0.365	0
96	20225	0.366	0
96	20310	0.368	0
96	20313	0.368	0
96	20324	0.368	0
96	20327	0.368	0
96	20342	0.368	0
96	20345	0.368	0
96	20350	0.368	0
96	20353	0.368	0
96	20356	0.368	0
96	20359	0.368	0
96	20362	0.368	0
96	20365	0.368	0
96	20429	0.37	0
96	20431	0.37	0
96	20433	0.37	0
96	20464	0.371	0
96	20567	0.373	0
96	20570	0.373	0
96	20573	0.373	0
96	20576	0.373	0
96	20605	0.374	0
96	20608	0.374	0
96	20619	0.374	0
96	20622	0.374	0
96	20637	0.374	0
96	20640	0.374	0
96	20645	0.374	0
96	20648	0.374	0
96	20688	0.375	0
96	20690	0.375	0
96	20692	0.375	0
96	20723	0.376	0
96	20806	0.378	0
96	20809	0.378	0
96	20812	0.378	0
96	20815	0.378	0
96	20898	0.38	0
96	20901	0.38	0
96	20912	0.38	0
96	20915	0.38	0
96	20930	0.38	0
96	20933	0.38	0
96	20938	0.38	0
96	20941	0.38	0
96	20947	0.38	0
96	20949	0.38	0
96	20951	0.38	0
96	20982	0.381	0
96	21045	0.383	0
96	21048	0.383	0
96	21051	0.383	0
96	21054	0.383	0
96	21158	0.385	0
96	21160	0.385	0
96	21162	0.385	0
96	21192	0.386	0
96	21195	0.386	0
96	21206	0.386	0
96	21209	0.386	0
96	21224	0.386	0
96	21227	0.386	0
96	21232	0.386	0
96	21235	0.386	0
96	21241	0.386	0
96	21304	0.388	0
96	21307	0.388	0
96	21310	0.388	0
96	21313	0.388	0
96	21397	0.39	0
96	21399	0.39	0
96	21401	0.39	0
96	21452	0.391	0
96	21481	0.392	0
96	21484	0.392	0
96	21495	0.392	0
96	21498	0.392	0
96	21513	0.392	0
96	21516	0.392	0
96	21521	0.392	0
96	21524	0.392	0
96	21563	0.393	0
96	21566	0.393	0
96	21569	0.393	0
96	21572	0.393	0
96	21636	0.395	0
96	21638	0.395	0
96	21640	0.395	0
96	21691	0.396	0
96	21776	0.398	0
96	21779	0.398	0
96	21790	0.398	0
96	21793	0.398	0
96	21808	0.398	0
96	21811	0.398	0
96	21816	0.398	0
96	21819	0.398	0
96	21822	0.398	0
96	21825	0.398	0
96	21828	0.398	0
96	21831	0.398	0
96	21911	0.4	0
96	21913	0.4	0
96	21915	0.4	0
96	21946	0.401	0
96	22049	0.403	0
96	22052	0.403	0
96	22055	0.403	0
96	22058	0.403	0
96	22087	0.404	0
96	22090	0.404	0
96	22101	0.404	0
96	22104	0.404	0
96	22119	0.404	0
96	22122	0.404	0
96	22127	0.404	0
96	22130	0.404	0
96	22170	0.405	0
96	22172	0.405	0
96	22174	0.405	0
96	22205	0.406	0
96	22296	0.408	0
96	22299	0.408	0
96	22302	0.408	0
96	22305	0.408	0
96	22388	0.41	0
96	22391	0.41	0
96	22402	0.41	0
96	22405	0.41	0
96	22420	0.41	0
96	22423	0.41	0
96	22428	0.41	0
96	22431	0.41	0
96	22437	0.41	0
96	22439	0.41	0
96	22441	0.41	0
96	22472	0.411	0
96	22535	0.413	0
96	22538	0.413	0
96	22541	0.413	0
96	22544	0.413	0
96	22648	0.415	0
96	22650	0.415	0
96	22652	0.415	0
96	22682	0.416	0
96	22685	0.416	0
96	22696	0.416	0
96	22699	0.416	0
96	22714	0.416	0
96	22717	0.416	0
96	22722	0.416	0
96	22725	0.416	0
96	22731	0.416	0
96	22794	0.418	0
96	22797	0.418	0
96	22800	0.418	0
96	22803	0.418	0
96	22887	0.42	0
96	22889	0.42	0
96	22891	0.42	0
96	22942	0.421	0
96	22971	0.422	0
96	22974	0.422	0
96	22985	0.422	0
96	22988	0.422	0
96	23003	0.422	0
96	23006	0.422	0
96	23011	0.422	0
96	23014	0.422	0
96	23053	0.423	0
96	23056	0.423	0
96	23059	0.423	0
96	23062	0.423	0
96	23126	0.425	0
96	23128	0.425	0
96	23130	0.425	0
96	23181	0.426	0
96	23266	0.428	0
96	23269	0.428	0
96	23280	0.428	0
96	23283	0.428	0
96	23298	0.428	0
96	23301	0.428	0
96	23306	0.428	0
96	23309	0.428	0
96	23312	0.428	0
96	23315	0.428	0
96	23318	0.428	0
96	23321	0.428	0
96	23385	0.43	0
96	23387	0.43	0
96	23389	0.43	0
96	23420	0.431	0
96	23523	0.433	0
96	23526	0.433	0
96	23529	0.433	0
96	23532	0.433	0
96	23561	0.434	0
96	23564	0.434	0
96	23575	0.434	0
96	23578	0.434	0
96	23593	0.434	0
96	23596	0.434	0
96	23601	0.434	0
96	23604	0.434	0
96	23644	0.435	0
96	23646	0.435	0
96	23648	0.435	0
96	23679	0.436	0
96	23762	0.438	0
96	23765	0.438	0
96	23768	0.438	0
96	23771	0.438	0
96	23854	0.44	0
96	23857	0.44	0
96	23868	0.44	0
96	23871	0.44	0
96	23886	0.44	0
96	23889	0.44	0
96	23894	0.44	0
96	23897	0.44	0
96	23903	0.44	0
96	23905	0.44	0
96	23907	0.44	0
96	23938	0.441	0
96	24001	0.443	0
96	24004	0.443	0
96	24007	0.443	0
96	24010	0.443	0
96	24114	0.445	0
96	24116	0.445	0
96	24118	0.445	0
96	24148	0.446	0
96	24151	0.446	0
96	24162	0.446	0
96	24165	0.446	0
96	24180	0.446	0
96	24183	0.446	0
96	24188	0.446	0
96	24191	0.446	0
96	24197	0.446	0
96	24260	0.448	0
96	24263	0.448	0
96	24266	0.448	0
96	24269	0.448	0
96	24353	0.45	0
96	24355	0.45	0
96	24357	0.45	0
96	24408	0.451	0
96	24437	0.452	0
96	24440	0.452	0
96	24451	0.452	0
96	24454	0.452	0
96	24469	0.452	0
96	24472	0.452	0
96	24477	0.452	0
96	24480	0.452	0
96	24519	0.453	0
96	24522	0.453	0
96	24525	0.453	0
96	24528	0.453	0
96	24592	0.455	0
96	24594	0.455	0
96	24596	0.455	0
96	24647	0.456	0
96	24740	0.458	0
96	24743	0.458	0
96	24754	0.458	0
96	24757	0.458	0
96	24772	0.458	0
96	24775	0.458	0
96	24780	0.458	0
96	24783	0.458	0
96	24786	0.458	0
96	24789	0.458	0
96	24792	0.458	0
96	24795	0.458	0
96	24859	0.46	0
96	24861	0.46	0
96	24863	0.46	0
96	24894	0.461	0
96	24997	0.463	0
96	25000	0.463	0
96	25003	0.463	0
96	25006	0.463	0
96	25035	0.464	0
96	25038	0.464	0
96	25049	0.464	0
96	25052	0.464	0
96	25067	0.464	0
96	25070	0.464	0
96	25075	0.464	0
96	25078	0.464	0
96	25118	0.465	0
96	25120	0.465	0
96	25122	0.465	0
96	25153	0.466	0
96	25236	0.468	0
96	25239	0.468	0
96	25242	0.468	0
96	25245	0.468	0
96	25328	0.47	0
96	25331	0.47	0
96	25342	0.47	0
96	25345	0.47	0
96	25360	0.47	0
96	25363	0.47	0
96	25368	0.47	0
96	25371	0.47	0
96	25377	0.47	0
96	25379	0.47	0
96	25381	0.47	0
96	25412	0.471	0
96	25475	0.473	0
96	25478	0.473	0
96	25481	0.473	0
96	25484	0.473	0
96	25588	0.475	0
96	25590	0.475	0
96	25592	0.475	0
96	25622	0.476	0
96	25625	0.476	0
96	25636	0.476	0
96	25639	0.476	0
96	25654	0.476	0
96	25657	0.476	0
96	25662	0.476	0
96	25665	0.476	0
96	25671	0.476	0
96	25734	0.478	0
96	25737	0.478	0
96	25740	0.478	0
96	25743	0.478	0
96	25827	0.48	0
96	25829	0.48	0
96	25831	0.48	0
96	25882	0.481	0
96	25911	0.482	0
96	25914	0.482	0
96	25925	0.482	0
96	25928	0.482	0
96	25943	0.482	0
96	25946	0.482	0
96	25951	0.482	0
[...]
1175	11484	0.2070005424	84
1175	11484	0.2070005424	86
1175	11484	0.2070005424	88
1175	11484	0.2070005424	90
1175	11484	0.2070005424	92
1175	11484	0.2070005424	94
1175	11484	0.2070005424	96
1175	11484	0.2070005424	98
1175	11484	0.2070005424	100
1175	11484	0.2070005424	102
1175	11484	0.2070005424	104
1175	11484	0.2070005424	106
1175	11484	0.2070005424	108
1175	11484	0.2070005424	110
1175	11484	0.2070005424	112
1175	11484	0.2070005424	114
1175	11484	0.2070005424	116
1175	11484	0.2070005424	118
1175	11484	0.2070005424	120
1175	11484	0.2070005424	122
1175	11484	0.2070005424	124
1175	11484	0.2070005424	126
1175	11484	0.2070005424	128
1175	11484	0.2070005424	130
1175	11484	0.2070005424	132
1175	11484	0.2070005424	134
1175	11484	0.2070005424	136
1175	11484	0.2070005424	138
1175	11484	0.2070005424	140
1175	11484	0.2070005424	142
1175	11484	0.2070005424	144
1175	11484	0.2070005424	146
1175	11484	0.2070005424	148
1175	11484	0.2070005424	150
1175	11484	0.2070005424	152
1175	11484	0.2070005424	154
1175	11484	0.2070005424	156
1175	11484	0.2070005424	158
1175	11484	0.2070005424	160
1175	11484	0.2070005424	162
1175	11484	0.2070005424	164
1175	11484	0.2070005424	166
1175	11484	0.2070005424	168
1175	11484	0.2070005424	170
1175	11484	0.2070005424	172
1175	11484	0.2070005424	174
1175	11484	0.2070005424	176
1175	11484	0.2070005424	178
1175	11484	0.2070005424	180
1175	11484	0.2070005424	182
1175	11484	0.2070005424	184
1175	11484	0.2070005424	186
1175	11484	0.2070005424	188
1175	11484	0.2070005424	190
1175	11484	0.2070005424	192
1175	22250	0.4070022536	190
1175	22250	0.4070022536	188
1175	22250	0.4070022536	186
1175	22250	0.4070022536	184
1175	22250	0.4070022536	182
1175	22250	0.4070022536	180
1175	22250	0.4070022536	178
1175	22250	0.4070022536	176
1175	22250	0.4070022536	174
1175	22250	0.4070022536	172
1175	22250	0.4070022536	170
1175	22250	0.4070022536	168
1175	22250	0.4070022536	166
1175	22250	0.4070022536	164
1175	22250	0.4070022536	162
1175	22250	0.4070022536	160
1175	22250	0.4070022536	158
1175	22250	0.4070022536	156
1175	22250	0.4070022536	154
1175	22250	0.4070022536	152
1175	22250	0.4070022536	150
1175	22250	0.4070022536	148
1175	22250	0.4070022536	146
1175	22250	0.4070022536	144
1175	22250	0.4070022536	142
1175	22250	0.4070022536	140
1175	22250	0.4070022536	138
1175	22250	0.4070022536	136
1175	22250	0.4070022536	134
1175	22250	0.4070022536	132
1175	22250	0.4070022536	130
1175	22250	0.4070022536	128
1175	22250	0.4070022536	126
1175	22250	0.4070022536	124
1175	22250	0.4070022536	122
1175	22250	0.4070022536	120
1175	22250	0.4070022536	118
1175	22250	0.4070022536	116
1175	22250	0.4070022536	114
1175	22250	0.4070022536	112
1175	22250	0.4070022536	110
1175	22250	0.4070022536	108
1175	22250	0.4070022536	106
1175	22250	0.4070022536	104
1175	22250	0.4070022536	102
1175	22250	0.4070022536	100
1175	22250	0.4070022536	98
1175	22250	0.4070022536	96
1175	22250	0.4070022536	94
1175	22250	0.4070022536	92
1175	22250	0.4070022536	90
1175	22250	0.4070022536	88
1175	22250	0.4070022536	86
1175	22250	0.4070022536	84
1175	22250	0.4070022536	82
1175	22250	0.4070022536	80
1175	22250	0.4070022536	78
1175	22250	0.4070022536	76
1175	22250	0.4070022536	74
1175	22250	0.4070022536	72
1175	22250	0.4070022536	70
1175	22250	0.4070022536	68
1175	22250	0.4070022536	66
1175	22250	0.4070022536	64
1175	22250	0.4070022536	62
1175	22250	0.4070022536	60
1175	22250	0.4070022536	58
1175	22250	0.4070022536	56
1175	22250	0.4070022536	54
1175	22250	0.4070022536	52
1175	22250	0.4070022536	50
1175	22250	0.4070022536	48
1175	22250	0.4070022536	46
1175	22250	0.4070022536	44
1175	22250	0.4070022536	42
1175	22250	0.4070022536	40
1175	22250	0.4070022536	38
1175	22250	0.4070022536	36
1175	22250	0.4070022536	34
1175	22250	0.4070022536	32
1175	22250	0.4070022536	30
1175	22250	0.4070022536	28
1175	22250	0.4070022536	26
1175	22250	0.4070022536	24
1175	22250	0.4070022536	22
1175	22250	0.4070022536	20
1175	22250	0.4070022536	18
1175	22250	0.4070022536	16
1175	22250	0.4070022536	14
1175	22250	0.4070022536	12
1175	22250	0.4070022536	10
1175	22250	0.4070022536	8
1175	22250	0.4070022536	6
1175	22250	0.4070022536	4
1175	22250	0.4070022536	2
1175	22250	0.4070022536	0
1178	651	0.0070001912	0
1178	11484	0.2070005424	0
1178	22250	0.4070022536	0
1179	651	0.0070001912	0
1179	11484	0.2070005424	0
1179	22250	0.4070022536	0
1180	651	0.0070001912	0
1180	11484	0.2070005424	0
1180	22250	0.4070022536	0
1181	651	0.0070001912	0
1181	11484	0.2070005424	0
1181	22250	0.4070022536	0
1182	150	0.0000001228	0
1185	651	0.0070001912	2000
1185	11484	0.2070005424	2011
1185	22250	0.4070022536	2107
1187	651	0.0070001912	0
1187	11484	0.2070005424	0
1187	22250	0.4070022536	0
1188	651	0.0070001912	0
1188	11484	0.2070005424	0
1188	22250	0.4070022536	0
1190	235	0.0000006304	3
1192	235	0.0000006304	65535
1193	235	0.0000006304	8940
1194	235	0.0000006304	0.3725
1197	235	0.0000006304	1
1209	163	0.0000003096	0
1217	235	0.0000006304	3
1219	235	0.0000006304	65535
1220	235	0.0000006304	8940
1221	235	0.0000006304	0.3725
1224	235	0.0000006304	1
1236	163	0.0000003096	0
1244	236	0.0000006304	3
1246	236	0.0000006304	65535
1247	236	0.0000006304	8940
1248	236	0.0000006304	0.3725
1251	236	0.0000006304	1
1263	164	0.0000003096	0
1271	236	0.0000006304	3
1273	236	0.0000006304	65535
1274	236	0.0000006304	8940
1275	236	0.0000006304	0.3725
1278	236	0.0000006304	1
1290	164	0.0000003096	0
1300	3476	0.0570001912	0
1300	14393	0.2570005424	0
1300	24712	0.4570022536	0
1301	3400	0.057	1
1301	3400	0.057	0
1301	3404	0.057	1
1301	3405	0.057	2
1301	3406	0.057	3
1301	3407	0.057	4
1301	3408	0.057	5
1301	3409	0.057	6
1301	3410	0.057	7
1301	3411	0.057	8
1301	3412	0.057	9
1301	3413	0.057	10
1301	3414	0.057	11
1301	3476	0.0570001912	10
1301	3476	0.0570001912	9
1301	3476	0.0570001912	8
1301	3476	0.0570001912	7
1301	3476	0.0570001912	6
1301	3476	0.0570001912	5
1301	3476	0.0570001912	4
1301	3476	0.0570001912	3
1301	3476	0.0570001912	2
1301	3476	0.0570001912	1
1301	3476	0.0570001912	0
1301	3830	0.063	1
1301	3831	0.063	2
1301	3832	0.063	3
1301	3833	0.063	4
1301	3834	0.063	5
1301	3835	0.063	6
1301	3836	0.063	7
1301	3837	0.063	8
1301	3838	0.063	9
1301	3839	0.063	10
1301	3840	0.063	11
1301	3841	0.063	12
1301	4180	0.069	13
1301	4181	0.069	14
1301	4182	0.069	15
1301	4183	0.069	16
1301	4184	0.069	17
1301	4185	0.069	18
1301	4186	0.069	19
1301	4187	0.069	20
1301	4188	0.069	21
1301	4189	0.069	22
1301	4190	0.069	23
1301	4191	0.069	24
1301	4521	0.075	25
1301	4522	0.075	26
1301	4523	0.075	27
1301	4524	0.075	28
1301	4525	0.075	29
1301	4526	0.075	30
1301	4527	0.075	31
1301	4528	0.075	32
1301	4529	0.075	33
1301	4530	0.075	34
1301	4531	0.075	35
1301	4532	0.075	36
1301	4871	0.081	37
1301	4872	0.081	38
1301	4873	0.081	39
1301	4874	0.081	40
1301	4875	0.081	41
1301	4876	0.081	42
1301	4877	0.081	43
1301	4878	0.081	44
1301	4879	0.081	45
1301	4880	0.081	46
1301	4881	0.081	47
1301	4882	0.081	48
1301	5233	0.087	49
1301	5234	0.087	50
1301	5235	0.087	51
1301	5236	0.087	52
1301	5237	0.087	53
1301	5238	0.087	54
1301	5239	0.087	55
1301	5240	0.087	56
1301	5241	0.087	57
1301	5242	0.087	58
1301	5243	0.087	59
1301	5244	0.087	60
1301	5606	0.093	61
1301	5607	0.093	62
1301	5608	0.093	63
1301	5609	0.093	64
1301	5610	0.093	65
1301	5611	0.093	66
1301	5612	0.093	67
1301	5613	0.093	68
1301	5614	0.093	69
1301	5615	0.093	70
1301	5616	0.093	71
1301	5617	0.093	72
1301	5972	0.099	73
1301	5973	0.099	74
1301	5974	0.099	75
1301	5975	0.099	76
1301	5976	0.099	77
1301	5977	0.099	78
1301	5978	0.099	79
1301	5979	0.099	80
1301	5980	0.099	81
1301	5981	0.099	82
1301	5982	0.099	83
1301	5983	0.099	84
1301	6360	0.105	85
1301	6361	0.105	86
1301	6362	0.105	87
1301	6363	0.105	88
1301	6364	0.105	89
1301	6365	0.105	90
1301	6366	0.105	91
1301	6367	0.105	92
1301	6368	0.105	93
1301	6369	0.105	94
1301	6370	0.105	95
1301	6371	0.105	96
1301	14393	0.2570005424	95
1301	14393	0.2570005424	94
1301	14393	0.2570005424	93
1301	14393	0.2570005424	92
1301	14393	0.2570005424	91
1301	14393	0.2570005424	90
1301	14393	0.2570005424	89
1301	14393	0.2570005424	88
1301	14393	0.2570005424	87
1301	14393	0.2570005424	86
1301	14393	0.2570005424	85
1301	14393	0.2570005424	84
1301	14393	0.2570005424	83
1301	14393	0.2570005424	82
1301	14393	0.2570005424	81
1301	14393	0.2570005424	80
1301	14393	0.2570005424	79
1301	14393	0.2570005424	78
1301	14393	0.2570005424	77
1301	14393	0.2570005424	76
1301	14393	0.2570005424	75
1301	14393	0.2570005424	74
1301	14393	0.2570005424	73
1301	14393	0.2570005424	72
1301	14393	0.2570005424	71
1301	14393	0.2570005424	70
1301	14393	0.2570005424	69
1301	14393	0.2570005424	68
1301	14393	0.2570005424	67
1301	14393	0.2570005424	66
1301	14393	0.2570005424	65
1301	14393	0.2570005424	64
1301	14393	0.2570005424	63
1301	14393	0.2570005424	62
1301	14393	0.2570005424	61
1301	14393	0.2570005424	60
1301	14393	0.2570005424	59
1301	14393	0.2570005424	58
1301	14393	0.2570005424	57
1301	14393	0.2570005424	56
1301	14393	0.2570005424	55
1301	14393	0.2570005424	54
1301	14393	0.2570005424	53
1301	14393	0.2570005424	52
1301	14393	0.2570005424	51
1301	14393	0.2570005424	50
1301	14393	0.2570005424	49
1301	14393	0.2570005424	48
1301	14393	0.2570005424	47
1301	14393	0.2570005424	46
1301	14393	0.2570005424	45
1301	14393	0.2570005424	44
1301	14393	0.2570005424	43
1301	14393	0.2570005424	42
1301	14393	0.2570005424	41
1301	14393	0.2570005424	40
1301	14393	0.2570005424	39
1301	14393	0.2570005424	38
1301	14393	0.2570005424	37
1301	14393	0.2570005424	36
1301	14393	0.2570005424	35
1301	14393	0.2570005424	34
1301	14393	0.2570005424	33
1301	14393	0.2570005424	32
1301	14393	0.2570005424	31
1301	14393	0.2570005424	30
1301	14393	0.2570005424	29
1301	14393	0.2570005424	28
1301	14393	0.2570005424	27
1301	14393	0.2570005424	26
1301	14393	0.2570005424	25
1301	14393	0.2570005424	24
1301	14393	0.2570005424	23
1301	14393	0.2570005424	22
1301	14393	0.2570005424	21
1301	14393	0.2570005424	20
1301	14393	0.2570005424	19
1301	14393	0.2570005424	18
1301	14393	0.2570005424	17
1301	14393	0.2570005424	16
1301	14393	0.2570005424	15
1301	14393	0.2570005424	14
1301	14393	0.2570005424	13
1301	14393	0.2570005424	12
1301	14393	0.2570005424	11
1301	14393	0.2570005424	10
1301	14393	0.2570005424	9
1301	14393	0.2570005424	8
1301	14393	0.2570005424	7
1301	14393	0.2570005424	6
1301	14393	0.2570005424	5
1301	14393	0.2570005424	4
1301	14393	0.2570005424	3
1301	14393	0.2570005424	2
1301	14393	0.2570005424	1
1301	14393	0.2570005424	0
1304	651	0.0070001912	0
1304	11484	0.2070005424	0
1304	22250	0.4070022536	0
1305	597	0.007	1
1305	597	0.007	0
1305	598	0.007	1
1305	599	0.007	2
1305	600	0.007	3
1305	601	0.007	4
1305	602	0.007	5
1305	603	0.007	6
1305	604	0.007	7
1305	605	0.007	8
1305	606	0.007	9
1305	607	0.007	10
1305	608	0.007	11
1305	651	0.0070001912	10
1305	651	0.0070001912	9
1305	651	0.0070001912	8
1305	651	0.0070001912	7
1305	651	0.0070001912	6
1305	651	0.0070001912	5
1305	651	0.0070001912	4
1305	651	0.0070001912	3
1305	651	0.0070001912	2
1305	651	0.0070001912	1
1305	651	0.0070001912	0
1305	922	0.013	1
1305	923	0.013	2
1305	924	0.013	3
1305	925	0.013	4
1305	926	0.013	5
1305	927	0.013	6
1305	928	0.013	7
1305	929	0.013	8
1305	930	0.013	9
1305	931	0.013	10
1305	932	0.013	11
1305	933	0.013	12
1305	1178	0.019	13
1305	1179	0.019	14
1305	1180	0.019	15
1305	1181	0.019	16
1305	1182	0.019	17
1305	1183	0.019	18
1305	1184	0.019	19
1305	1185	0.019	20
1305	1186	0.019	21
1305	1187	0.019	22
1305	1188	0.019	23
1305	1189	0.019	24
1305	1452	0.025	25
1305	1453	0.025	26
1305	1454	0.025	27
1305	1455	0.025	28
1305	1456	0.025	29
1305	1457	0.025	30
1305	1458	0.025	31
1305	1459	0.025	32
1305	1460	0.025	33
1305	1461	0.025	34
1305	1462	0.025	35
1305	1463	0.025	36
1305	1790	0.031	37
1305	1791	0.031	38
1305	1792	0.031	39
1305	1793	0.031	40
1305	1794	0.031	41
1305	1795	0.031	42
1305	1796	0.031	43
1305	1797	0.031	44
1305	1798	0.031	45
1305	1799	0.031	46
1305	1800	0.031	47
1305	1801	0.031	48
1305	2132	0.037	49
1305	2133	0.037	50
1305	2134	0.037	51
1305	2135	0.037	52
1305	2136	0.037	53
1305	2137	0.037	54
1305	2138	0.037	55
1305	2139	0.037	56
1305	2140	0.037	57
1305	2141	0.037	58
1305	2142	0.037	59
1305	2143	0.037	60
1305	2510	0.043	61
1305	2511	0.043	62
1305	2512	0.043	63
1305	2513	0.043	64
1305	2514	0.043	65
1305	2515	0.043	66
1305	2516	0.043	67
1305	2517	0.043	68
1305	2518	0.043	69
1305	2519	0.043	70
1305	2520	0.043	71
1305	2521	0.043	72
1305	2882	0.049	73
1305	2883	0.049	74
1305	2884	0.049	75
1305	2885	0.049	76
1305	2886	0.049	77
1305	2887	0.049	78
1305	2888	0.049	79
1305	2889	0.049	80
1305	2890	0.049	81
1305	2891	0.049	82
1305	2892	0.049	83
1305	2893	0.049	84
1305	3230	0.055	85
1305	3231	0.055	86
1305	3232	0.055	87
1305	3233	0.055	88
1305	3234	0.055	89
1305	3235	0.055	90
1305	3236	0.055	91
1305	3237	0.055	92
1305	3238	0.055	93
1305	3239	0.055	94
1305	3240	0.055	95
1305	3241	0.055	96
1305	11484	0.2070005424	95
1305	11484	0.2070005424	94
1305	11484	0.2070005424	93
1305	11484	0.2070005424	92
1305	11484	0.2070005424	91
1305	11484	0.2070005424	90
1305	11484	0.2070005424	89
1305	11484	0.2070005424	88
1305	11484	0.2070005424	87
1305	11484	0.2070005424	86
1305	11484	0.2070005424	85
1305	11484	0.2070005424	84
1305	11484	0.2070005424	83
1305	11484	0.2070005424	82
1305	11484	0.2070005424	81
1305	11484	0.2070005424	80
1305	11484	0.2070005424	79
1305	11484	0.2070005424	78
1305	11484	0.2070005424	77
1305	11484	0.2070005424	76
1305	11484	0.2070005424	75
1305	11484	0.2070005424	74
1305	11484	0.2070005424	73
1305	11484	0.2070005424	72
1305	11484	0.2070005424	71
1305	11484	0.2070005424	70
1305	11484	0.2070005424	69
1305	11484	0.2070005424	68
1305	11484	0.2070005424	67
1305	11484	0.2070005424	66
1305	11484	0.2070005424	65
1305	11484	0.2070005424	64
1305	11484	0.2070005424	63
1305	11484	0.2070005424	62
1305	11484	0.2070005424	61
1305	11484	0.2070005424	60
1305	11484	0.2070005424	59
1305	11484	0.2070005424	58
1305	11484	0.2070005424	57
1305	11484	0.2070005424	56
1305	11484	0.2070005424	55
1305	11484	0.2070005424	54
1305	11484	0.2070005424	53
1305	11484	0.2070005424	52
1305	11484	0.2070005424	51
1305	11484	0.2070005424	50
1305	11484	0.2070005424	49
1305	11484	0.2070005424	48
1305	11484	0.2070005424	47
1305	11484	0.2070005424	46
1305	11484	0.2070005424	45
1305	11484	0.2070005424	44
1305	11484	0.2070005424	43
1305	11484	0.2070005424	42
1305	11484	0.2070005424	41
1305	11484	0.2070005424	40
1305	11484	0.2070005424	39
1305	11484	0.2070005424	38
1305	11484	0.2070005424	37
1305	11484	0.2070005424	36
1305	11484	0.2070005424	35
1305	11484	0.2070005424	34
1305	11484	0.2070005424	33
1305	11484	0.2070005424	32
1305	11484	0.2070005424	31
1305	11484	0.2070005424	30
1305	11484	0.2070005424	29
1305	11484	0.2070005424	28
1305	11484	0.2070005424	27
1305	11484	0.2070005424	26
1305	11484	0.2070005424	25
1305	11484	0.2070005424	24
1305	11484	0.2070005424	23
1305	11484	0.2070005424	22
1305	11484	0.2070005424	21
1305	11484	0.2070005424	20
1305	11484	0.2070005424	19
1305	11484	0.2070005424	18
1305	11484	0.2070005424	17
1305	11484	0.2070005424	16
1305	11484	0.2070005424	15
1305	11484	0.2070005424	14
1305	11484	0.2070005424	13
1305	11484	0.2070005424	12
1305	11484	0.2070005424	11
1305	11484	0.2070005424	10
1305	11484	0.2070005424	9
1305	11484	0.2070005424	8
1305	11484	0.2070005424	7
1305	11484	0.2070005424	6
1305	11484	0.2070005424	5
1305	11484	0.2070005424	4
1305	11484	0.2070005424	3
1305	11484	0.2070005424	2
1305	11484	0.2070005424	1
1305	11484	0.2070005424	0
1319	1055	0.016038050947	7504
1319	150183	3.016038050947	7504
1320	1055	0.016038050947	7504
1320	150183	3.016038050947	7504
1322	1055	0.016038050947	0
1322	150183	3.016038050947	0
1333	1055	0.016038050947	0
1333	150183	3.016038050947	0
1343	1295	0.021540784608	7504
1343	150464	3.021540784608	7504
1344	1295	0.021540784608	7504
1344	150464	3.021540784608	7504
1346	1295	0.021540784608	0
1346	150464	3.021540784608	0
1357	1295	0.021540784608	0
1357	150464	3.021540784608	0
1367	1551	0.02660460389	7504
1367	150768	3.02660460389	7504
1368	1551	0.02660460389	7504
1368	150768	3.02660460389	7504
1370	1551	0.02660460389	0
1370	150768	3.02660460389	0
1381	1551	0.02660460389	0
1381	150768	3.02660460389	0
1391	1589	0.027878343419	7504
1391	150822	3.027878343419	7504
1392	1589	0.027878343419	7504
1392	150822	3.027878343419	7504
1394	1589	0.027878343419	0
1394	150822	3.027878343419	0
1405	1589	0.027878343419	0
1405	150822	3.027878343419	0
1415	1628	0.028371024961	7504
1415	150870	3.028371024961	7504
1416	1628	0.028371024961	7504
1416	150870	3.028371024961	7504
1418	1628	0.028371024961	0
1418	150870	3.028371024961	0
1429	1628	0.028371024961	0
1429	150870	3.028371024961	0
1439	1898	0.032649362497	7504
1439	151172	3.032649362497	7504
1440	1898	0.032649362497	7504
1440	151172	3.032649362497	7504
1442	1898	0.032649362497	0
1442	151172	3.032649362497	0
1453	1898	0.032649362497	0
1453	151172	3.032649362497	0
1463	1977	0.034516076937	7504
1463	151260	3.034516076937	7504
1464	1977	0.034516076937	7504
1464	151260	3.034516076937	7504
1466	1977	0.034516076937	0
1466	151260	3.034516076937	0
1477	1977	0.034516076937	0
1477	151260	3.034516076937	0
1487	2081	0.036651693161	7504
1487	151380	3.036651693161	7504
1488	2081	0.036651693161	7504
1488	151380	3.036651693161	7504
1490	2081	0.036651693161	0
1490	151380	3.036651693161	0
1501	2081	0.036651693161	0
1501	151380	3.036651693161	0
1511	2336	0.040940929686	7504
1511	151630	3.040940929686	7504
1512	2336	0.040940929686	7504
1512	151630	3.040940929686	7504
1514	2336	0.040940929686	0
1514	151630	3.040940929686	0
1525	2336	0.040940929686	0
1525	151630	3.040940929686	0
1535	2831	0.04821039218	7504
1535	152104	3.04821039218	7504
1536	2831	0.04821039218	7504
1536	152104	3.04821039218	7504
1538	2831	0.04821039218	0
1538	152104	3.04821039218	0
1549	2831	0.04821039218	0
1549	152104	3.04821039218	0
1559	3286	0.055890854003	7504
1559	152491	3.055890854003	7504
1560	3286	0.055890854003	7504
1560	152491	3.055890854003	7504
1562	3286	0.055890854003	0
1562	152491	3.055890854003	0
1573	3286	0.055890854003	0
1573	152491	3.055890854003	0
1583	3540	0.057963030662	7504
1583	152617	3.057963030662	7504
1584	3540	0.057963030662	7504
1584	152617	3.057963030662	7504
1586	3540	0.057963030662	0
1586	152617	3.057963030662	0
1597	3540	0.057963030662	0
1597	152617	3.057963030662	0
1607	3875	0.063891002787	7504
1607	152958	3.063891002787	7504
1608	3875	0.063891002787	7504
1608	152958	3.063891002787	7504
1610	3875	0.063891002787	0
1610	152958	3.063891002787	0
1621	3875	0.063891002787	0
1621	152958	3.063891002787	0
1631	3914	0.064770889489	7504
1631	153008	3.064770889489	7504
1632	3914	0.064770889489	7504
1632	153008	3.064770889489	7504
1634	3914	0.064770889489	0
1634	153008	3.064770889489	0
1645	3914	0.064770889489	0
1645	153008	3.064770889489	0
1655	4745	0.079275280847	7504
1655	153849	3.079275280847	7504
1656	4745	0.079275280847	7504
1656	153849	3.079275280847	7504
1658	4745	0.079275280847	0
1658	153849	3.079275280847	0
1669	4745	0.079275280847	0
1669	153849	3.079275280847	0
1679	4957	0.082257983647	7504
1679	154032	3.082257983647	7504
1680	4957	0.082257983647	7504
1680	154032	3.082257983647	7504
1682	4957	0.082257983647	0
1682	154032	3.082257983647	0
1693	4957	0.082257983647	0
1693	154032	3.082257983647	0
1703	5319	0.088577514598	7504
1703	154409	3.088577514598	7504
1704	5319	0.088577514598	7504
1704	154409	3.088577514598	7504
1706	5319	0.088577514598	0
1706	154409	3.088577514598	0
1717	5319	0.088577514598	0
1717	154409	3.088577514598	0
1727	5327	0.088784986169	7504
1727	154416	3.088784986169	7504
1728	5327	0.088784986169	7504
1728	154416	3.088784986169	7504
1730	5327	0.088784986169	0
1730	154416	3.088784986169	0
1741	5327	0.088784986169	0
1741	154416	3.088784986169	0
1751	5774	0.096236986774	7504
1751	154963	3.096236986774	7504
1752	5774	0.096236986774	7504
1752	154963	3.096236986774	7504
1754	5774	0.096236986774	0
1754	154963	3.096236986774	0
1765	5774	0.096236986774	0
1765	154963	3.096236986774	0
1775	5782	0.09658703896	7504
1775	154970	3.09658703896	7504
1776	5782	0.09658703896	7504
1776	154970	3.09658703896	7504
1778	5782	0.09658703896	0
1778	154970	3.09658703896	0
1789	5782	0.09658703896	0
1789	154970	3.09658703896	0
