version 2
run CAIN-78-20200508-16:31:55-12849
attr configname CAIN
attr datetime 20200508-16:31:55
attr dist 200
attr experiment CAIN
attr extAllocType "\"FULL_ALLOC\""
attr inifile omnetpp.ini
attr iterationvars "$numUe=20, $pwr=-50, $dist=200, $mob=\"./movements/RWPRPGM-0.5.movements\", $extAllocType=\"FULL_ALLOC\""
attr iterationvars2 "$numUe=20, $pwr=-50, $dist=200, $mob=\"./movements/RWPRPGM-0.5.movements\", $extAllocType=\"FULL_ALLOC\", $repetition=3"
attr measurement "$numUe=20, $pwr=-50, $dist=200, $mob=\"./movements/RWPRPGM-0.5.movements\", $extAllocType=\"FULL_ALLOC\""
attr mob "\"./movements/RWPRPGM-0.5.movements\""
attr network lte.simulations.networks.CAIN
attr numUe 20
attr processid 12849
attr pwr -50
attr repetition 3
attr replication #3
attr resultdir results
attr runnumber 78
attr seedset 3
param **.**.amcMode "\"AUTO\""
param **.amcMode "\"D2D\""
param **.cainNetwork true
param **.channelControl.alpha 1.0
param **.channelControl.carrierFrequency 2100e+6Hz
param **.channelControl.pMax 10W
param **.d2dCqi 7
param **.deployer.numRbDl 50
param **.deployer.numRbUl 50
param **.distThresh ${dist=200}
param **.fbDelay 1
param **.feedbackComputation "xmldoc(\"config_channel.xml\")"
param **.mobility.constraintAreaMaxX 1000m
param **.mobility.constraintAreaMaxY 1000m
param **.mobility.constraintAreaMaxZ 0m
param **.mobility.constraintAreaMinX 0m
param **.mobility.constraintAreaMinY 0m
param **.mobility.constraintAreaMinZ 0m
param **.nic.phy.channelModel "xmldoc(\"config_channel.xml\")"
param **.numBands 50
param **.pwrThresh "${pwr= -50}"
param **.qtdThresh 3
param **.rbAllocationType "\"localized\""
param **.routingRecorder.enabled false
param **.tcpApp[*].tClose -1s
param **.ueD2DTx[*].mobility.changeAngleBy "normal(0deg, 30deg)"
param **.ueD2DTx[*].mobility.changeInterval "normal(5s, 0.1s)"
param **.ueD2DTx[*].mobility.nodeId -1
param **.ueD2DTx[*].mobility.speed "normal(2mps, 0.01mps)"
param **.ueD2DTx[*].mobility.traceFile "${mob=\"./movements/RWP-0.0.movements\",\"./movements/RWP-0.5.movements\",\"./movements/RPGM-0.0.movements\",\"./movements/RPGM-0.5.movements\",\"./movements/RWPRPGM-0.0.movements\",\"./movements/RWPRPGM-0.5.movements\"}"
param **.ueD2DTx[*].mobilityType "\"BonnMotionMobility\""
param **.usePreconfiguredTxParams false
param *.eNodeB*.numX2Apps 1
param *.eNodeB*.x2App[*].server.localPort "5000 + ancestorIndex(1)"
param *.eNodeB.d2dCapable false
param *.eNodeB.mobility.initFromDisplayString false
param *.eNodeB.mobility.initialX 300m
param *.eNodeB.mobility.initialY 300m
param *.eNodeB.nic.phy.enableD2DCqiReporting true
param *.eNodeB.txPower 19952.62315mw
param *.eNodeB.x2App[0].client.connectAddress "\"eNodeB1%x2ppp0\""
param *.eNodeB1.d2dCapable true
param *.eNodeB1.mobility.initFromDisplayString false
param *.eNodeB1.mobility.initialX 700m
param *.eNodeB1.mobility.initialY 300m
param *.eNodeB1.nic.phy.enableD2DCqiReporting true
param *.eNodeB1.txPower 19952.62315mw
param *.eNodeB1.x2App[0].client.connectAddress "\"eNodeB%x2ppp0\""
param *.extCell[*].bandAllocationType "${extAllocType=\"FULL_ALLOC\",\"RANDOM_ALLOC\",\"CONTIGUOUS_ALLOC\"}"
param *.extCell[*].bandUtilization 0.5
param *.extCell[*].txDirection "\"ANISOTROPIC\""
param *.extCell[*].txPower 20
param *.extCell[0].position_x 100m
param *.extCell[0].position_y 600m
param *.extCell[0].txAngle 315
param *.extCell[1].position_x 600m
param *.extCell[1].position_y 600m
param *.extCell[1].txAngle 225
param *.numExtCells 2
param *.numUeCell 0
param *.numUeD2DRx 1
param *.numUeD2DTx 1
param *.ue*.macCellId 1
param *.ue*.masterId 1
param *.ue*.mobility.initFromDisplayString false
param *.ue*[0].macCellId 1
param *.ue*[0].masterId 1
param *.ue*[0].mobility.initFromDisplayString false
param *.ueD2D*.numTcpApps 1
param *.ueD2D*[*].d2dCapable true
param *.ueD2D*[0].d2dCapable false
param *.ueD2D*[0].numTcpApps 1
param *.ueD2DRx[0].mobility.initialX 310m
param *.ueD2DRx[0].mobility.initialY 350m
param *.ueD2DRx[0].tcpApp[*].localPort 1000
param *.ueD2DRx[0].tcpApp[*].typename "\"TCPSinkApp\""
param *.ueD2DTx*.nic.d2dPeerAddresses "\"ueD2DTx[1]\""
param *.ueD2DTx*.tcpApp[*].connectAddress "\"ueD2DTx[0]\""
param *.ueD2DTx*.tcpApp[*].localAddress "\"ueD2DTx\""
param *.ueD2DTx*.tcpApp[*].localPort 1000
param *.ueD2DTx*.tcpApp[*].sendBytes 1GiB
param *.ueD2DTx*.tcpApp[*].typename "\"TCPSessionApp\""
param *.ueD2DTx*.tcpApp[0].active true
param *.ueD2DTx*.tcpApp[0].connectPort 1000
param *.ueD2DTx*.tcpApp[0].tOpen uniform(0.010s,0.1s)
param *.ueD2DTx*.tcpApp[0].tSend uniform(0.15s,0.5s)
param *.ueD2DTx[0].mobility.initialX 290m
param *.ueD2DTx[0].mobility.initialY 350m
param *.ueD2DTx[0].tcpApp[*].localPort 1000
param *.ueD2DTx[0].tcpApp[*].sendBytes 1GiB
param *.ueD2DTx[0].tcpApp[*].typename "\"TCPSessionApp\""
param *.ueD2DTx[0].tcpApp[0].active true
param *.ueD2DTx[0].tcpApp[0].connectAddress "\"ueD2DRx[0]\""
param *.ueD2DTx[0].tcpApp[0].connectPort 1000
param *.ueD2DTx[0].tcpApp[0].localAddress "\"ueD2DTx[0]\""
param *.ueD2DTx[0].tcpApp[0].tOpen uniform(0.010s,0.1s)
param *.ueD2DTx[0].tcpApp[0].tSend uniform(0.15s,0.5s)
param *.ueD2DTx[1].mobility.initialX 690m
param *.ueD2DTx[1].mobility.initialY 250m

vector 8  CAIN.server.ppp[0].queue  queueLength:vector  ETV
attr interpolationmode  sample-hold
attr title  "queue length, vector"
vector 9  CAIN.server.ppp[0].ppp  txState:vector  ETV
attr interpolationmode  sample-hold
attr title  "tx state, vector"
vector 24  CAIN.router.ppp[0].queue  queueLength:vector  ETV
attr interpolationmode  sample-hold
attr title  "queue length, vector"
vector 25  CAIN.router.ppp[0].ppp  txState:vector  ETV
attr interpolationmode  sample-hold
attr title  "tx state, vector"
vector 35  CAIN.router.ppp[1].queue  queueLength:vector  ETV
attr interpolationmode  sample-hold
attr title  "queue length, vector"
vector 36  CAIN.router.ppp[1].ppp  txState:vector  ETV
attr interpolationmode  sample-hold
attr title  "tx state, vector"
vector 56  CAIN.pgw.ppp[0].queue  queueLength:vector  ETV
attr interpolationmode  sample-hold
attr title  "queue length, vector"
vector 57  CAIN.pgw.ppp[0].ppp  txState:vector  ETV
attr interpolationmode  sample-hold
attr title  "tx state, vector"
vector 67  CAIN.pgw.ppp[1].queue  queueLength:vector  ETV
attr interpolationmode  sample-hold
attr title  "queue length, vector"
vector 68  CAIN.pgw.ppp[1].ppp  txState:vector  ETV
attr interpolationmode  sample-hold
attr title  "tx state, vector"
vector 78  CAIN.pgw.pppInterface.queue  queueLength:vector  ETV
attr interpolationmode  sample-hold
attr title  "queue length, vector"
vector 79  CAIN.pgw.pppInterface.ppp  txState:vector  ETV
attr interpolationmode  sample-hold
attr title  "tx state, vector"
vector 120  CAIN.eNodeB.pppIf.queue  queueLength:vector  ETV
attr interpolationmode  sample-hold
attr title  "queue length, vector"
vector 121  CAIN.eNodeB.pppIf.ppp  txState:vector  ETV
attr interpolationmode  sample-hold
attr title  "tx state, vector"
vector 131  CAIN.eNodeB.x2ppp[0].queue  queueLength:vector  ETV
attr interpolationmode  sample-hold
attr title  "queue length, vector"
vector 132  CAIN.eNodeB.x2ppp[0].ppp  txState:vector  ETV
attr interpolationmode  sample-hold
attr title  "tx state, vector"
vector 178  CAIN.eNodeB1.pppIf.queue  queueLength:vector  ETV
attr interpolationmode  sample-hold
attr title  "queue length, vector"
vector 179  CAIN.eNodeB1.pppIf.ppp  txState:vector  ETV
attr interpolationmode  sample-hold
attr title  "tx state, vector"
vector 189  CAIN.eNodeB1.x2ppp[0].queue  queueLength:vector  ETV
attr interpolationmode  sample-hold
attr title  "queue length, vector"
vector 190  CAIN.eNodeB1.x2ppp[0].ppp  txState:vector  ETV
attr interpolationmode  sample-hold
attr title  "tx state, vector"
vector 231  CAIN.ueD2DTx[0].nic.phy  servingCell:vector  ETV
attr source  servingCell
attr title  "ID of the serving eNodeB for the UE, vector"
attr unit  ""
vector 263  CAIN.ueD2DTx[1].nic.phy  servingCell:vector  ETV
attr source  servingCell
attr title  "ID of the serving eNodeB for the UE, vector"
attr unit  ""
vector 295  CAIN.ueD2DTx[2].nic.phy  servingCell:vector  ETV
attr source  servingCell
attr title  "ID of the serving eNodeB for the UE, vector"
attr unit  ""
vector 327  CAIN.ueD2DTx[3].nic.phy  servingCell:vector  ETV
attr source  servingCell
attr title  "ID of the serving eNodeB for the UE, vector"
attr unit  ""
vector 359  CAIN.ueD2DTx[4].nic.phy  servingCell:vector  ETV
attr source  servingCell
attr title  "ID of the serving eNodeB for the UE, vector"
attr unit  ""
vector 391  CAIN.ueD2DTx[5].nic.phy  servingCell:vector  ETV
attr source  servingCell
attr title  "ID of the serving eNodeB for the UE, vector"
attr unit  ""
vector 423  CAIN.ueD2DTx[6].nic.phy  servingCell:vector  ETV
attr source  servingCell
attr title  "ID of the serving eNodeB for the UE, vector"
attr unit  ""
vector 455  CAIN.ueD2DTx[7].nic.phy  servingCell:vector  ETV
attr source  servingCell
attr title  "ID of the serving eNodeB for the UE, vector"
attr unit  ""
vector 487  CAIN.ueD2DTx[8].nic.phy  servingCell:vector  ETV
attr source  servingCell
attr title  "ID of the serving eNodeB for the UE, vector"
attr unit  ""
vector 519  CAIN.ueD2DTx[9].nic.phy  servingCell:vector  ETV
attr source  servingCell
attr title  "ID of the serving eNodeB for the UE, vector"
attr unit  ""
vector 551  CAIN.ueD2DTx[10].nic.phy  servingCell:vector  ETV
attr source  servingCell
attr title  "ID of the serving eNodeB for the UE, vector"
attr unit  ""
vector 583  CAIN.ueD2DTx[11].nic.phy  servingCell:vector  ETV
attr source  servingCell
attr title  "ID of the serving eNodeB for the UE, vector"
attr unit  ""
vector 615  CAIN.ueD2DTx[12].nic.phy  servingCell:vector  ETV
attr source  servingCell
attr title  "ID of the serving eNodeB for the UE, vector"
attr unit  ""
vector 647  CAIN.ueD2DTx[13].nic.phy  servingCell:vector  ETV
attr source  servingCell
attr title  "ID of the serving eNodeB for the UE, vector"
attr unit  ""
vector 679  CAIN.ueD2DTx[14].nic.phy  servingCell:vector  ETV
attr source  servingCell
attr title  "ID of the serving eNodeB for the UE, vector"
attr unit  ""
vector 711  CAIN.ueD2DTx[15].nic.phy  servingCell:vector  ETV
attr source  servingCell
attr title  "ID of the serving eNodeB for the UE, vector"
attr unit  ""
vector 743  CAIN.ueD2DTx[16].nic.phy  servingCell:vector  ETV
attr source  servingCell
attr title  "ID of the serving eNodeB for the UE, vector"
attr unit  ""
vector 775  CAIN.ueD2DTx[17].nic.phy  servingCell:vector  ETV
attr source  servingCell
attr title  "ID of the serving eNodeB for the UE, vector"
attr unit  ""
vector 807  CAIN.ueD2DTx[18].nic.phy  servingCell:vector  ETV
attr source  servingCell
attr title  "ID of the serving eNodeB for the UE, vector"
attr unit  ""
vector 839  CAIN.ueD2DTx[19].nic.phy  servingCell:vector  ETV
attr source  servingCell
attr title  "ID of the serving eNodeB for the UE, vector"
attr unit  ""
vector 863  CAIN.eNodeB.sctp  "Throughput of Association 3"  ETV
vector 885  CAIN.eNodeB1.sctp  "Throughput of Association 4"  ETV
vector 907  CAIN.eNodeB.sctp  "Throughput of Association 1"  ETV
vector 927  CAIN.eNodeB.sctp  "Fast Recovery State 1:10.0.5.2"  ETV
vector 956  CAIN.eNodeB1.sctp  "Throughput of Association 2"  ETV
vector 976  CAIN.eNodeB1.sctp  "Fast Recovery State 2:10.0.5.1"  ETV
vector 128  CAIN.eNodeB.x2ppp[0].queue  rcvdPk:vector(packetBytes)  ETV
attr interpolationmode  none
attr title  "received packets, vector(packetBytes)"
vector 130  CAIN.eNodeB.x2ppp[0].queue  queueingTime:vector  ETV
attr interpolationmode  none
attr title  "queueing time, vector"
vector 186  CAIN.eNodeB1.x2ppp[0].queue  rcvdPk:vector(packetBytes)  ETV
attr interpolationmode  none
attr title  "received packets, vector(packetBytes)"
vector 188  CAIN.eNodeB1.x2ppp[0].queue  queueingTime:vector  ETV
attr interpolationmode  none
attr title  "queueing time, vector"
vector 137  CAIN.eNodeB.x2ppp[0].ppp  rcvdPkFromHL:vector(packetBytes)  ETV
attr interpolationmode  none
attr source  packetReceivedFromUpper
attr title  "packets received from higher layer, vector(packetBytes)"
vector 133  CAIN.eNodeB.x2ppp[0].ppp  txPk:vector(packetBytes)  ETV
attr interpolationmode  none
attr source  packetSentToLower
attr title  "packets transmitted, vector(packetBytes)"
vector 195  CAIN.eNodeB1.x2ppp[0].ppp  rcvdPkFromHL:vector(packetBytes)  ETV
attr interpolationmode  none
attr source  packetReceivedFromUpper
attr title  "packets received from higher layer, vector(packetBytes)"
vector 191  CAIN.eNodeB1.x2ppp[0].ppp  txPk:vector(packetBytes)  ETV
attr interpolationmode  none
attr source  packetSentToLower
attr title  "packets transmitted, vector(packetBytes)"
vector 192  CAIN.eNodeB1.x2ppp[0].ppp  rxPkOk:vector(packetBytes)  ETV
attr interpolationmode  none
attr source  rxPkOk
attr title  "packets received OK, vector(packetBytes)"
vector 196  CAIN.eNodeB1.x2ppp[0].ppp  passedUpPk:vector(packetBytes)  ETV
attr interpolationmode  none
attr source  packetSentToUpper
attr title  "packets passed to higher layer, vector(packetBytes)"
vector 134  CAIN.eNodeB.x2ppp[0].ppp  rxPkOk:vector(packetBytes)  ETV
attr interpolationmode  none
attr source  rxPkOk
attr title  "packets received OK, vector(packetBytes)"
vector 138  CAIN.eNodeB.x2ppp[0].ppp  passedUpPk:vector(packetBytes)  ETV
attr interpolationmode  none
attr source  packetSentToUpper
attr title  "packets passed to higher layer, vector(packetBytes)"
vector 1005  CAIN.eNodeB1.sctp  "Throughput of Association 4"  ETV
vector 882  CAIN.eNodeB1.sctp  "Peer Rwnd 4"  ETV
vector 1025  CAIN.eNodeB1.sctp  "Fast Recovery State 5:10.0.4.1"  ETV
vector 1052  CAIN.eNodeB1.sctp  "Fast Recovery State 5:10.0.2.2"  ETV
vector 1079  CAIN.eNodeB1.sctp  "Fast Recovery State 5:10.0.5.1"  ETV
vector 1108  CAIN.eNodeB.sctp  "Throughput of Association 3"  ETV
vector 860  CAIN.eNodeB.sctp  "Peer Rwnd 3"  ETV
vector 1128  CAIN.eNodeB.sctp  "Fast Recovery State 6:10.0.4.2"  ETV
vector 1155  CAIN.eNodeB.sctp  "Fast Recovery State 6:10.0.3.2"  ETV
vector 1182  CAIN.eNodeB.sctp  "Fast Recovery State 6:10.0.5.2"  ETV
vector 904  CAIN.eNodeB.sctp  "Peer Rwnd 1"  ETV
vector 1209  CAIN.eNodeB.sctp  "Fast Recovery State 1:10.0.4.2"  ETV
vector 1236  CAIN.eNodeB.sctp  "Fast Recovery State 1:10.0.3.2"  ETV
vector 953  CAIN.eNodeB1.sctp  "Peer Rwnd 2"  ETV
vector 1263  CAIN.eNodeB1.sctp  "Fast Recovery State 2:10.0.4.1"  ETV
vector 1290  CAIN.eNodeB1.sctp  "Fast Recovery State 2:10.0.2.2"  ETV
vector 1035  CAIN.eNodeB1.sctp  "Slow Start Threshold 5:10.0.2.2"  ETV
vector 1036  CAIN.eNodeB1.sctp  "Congestion Window 5:10.0.2.2"  ETV
vector 1037  CAIN.eNodeB1.sctp  "Bandwidth 5:10.0.2.2"  ETV
vector 1040  CAIN.eNodeB1.sctp  "HB Sent 5:10.0.2.2"  ETV
vector 1033  CAIN.eNodeB1.sctp  "RTO 5:10.0.2.2"  ETV
vector 1008  CAIN.eNodeB1.sctp  "Slow Start Threshold 5:10.0.4.1"  ETV
vector 1009  CAIN.eNodeB1.sctp  "Congestion Window 5:10.0.4.1"  ETV
vector 1010  CAIN.eNodeB1.sctp  "Bandwidth 5:10.0.4.1"  ETV
vector 1013  CAIN.eNodeB1.sctp  "HB Sent 5:10.0.4.1"  ETV
vector 1006  CAIN.eNodeB1.sctp  "RTO 5:10.0.4.1"  ETV
vector 1062  CAIN.eNodeB1.sctp  "Slow Start Threshold 5:10.0.5.1"  ETV
vector 1063  CAIN.eNodeB1.sctp  "Congestion Window 5:10.0.5.1"  ETV
vector 1064  CAIN.eNodeB1.sctp  "Bandwidth 5:10.0.5.1"  ETV
vector 1060  CAIN.eNodeB1.sctp  "RTO 5:10.0.5.1"  ETV
vector 1138  CAIN.eNodeB.sctp  "Slow Start Threshold 6:10.0.3.2"  ETV
vector 1139  CAIN.eNodeB.sctp  "Congestion Window 6:10.0.3.2"  ETV
vector 1140  CAIN.eNodeB.sctp  "Bandwidth 6:10.0.3.2"  ETV
vector 1143  CAIN.eNodeB.sctp  "HB Sent 6:10.0.3.2"  ETV
vector 1136  CAIN.eNodeB.sctp  "RTO 6:10.0.3.2"  ETV
vector 1111  CAIN.eNodeB.sctp  "Slow Start Threshold 6:10.0.4.2"  ETV
vector 1112  CAIN.eNodeB.sctp  "Congestion Window 6:10.0.4.2"  ETV
vector 1113  CAIN.eNodeB.sctp  "Bandwidth 6:10.0.4.2"  ETV
vector 1116  CAIN.eNodeB.sctp  "HB Sent 6:10.0.4.2"  ETV
vector 1109  CAIN.eNodeB.sctp  "RTO 6:10.0.4.2"  ETV
vector 1165  CAIN.eNodeB.sctp  "Slow Start Threshold 6:10.0.5.2"  ETV
vector 1166  CAIN.eNodeB.sctp  "Congestion Window 6:10.0.5.2"  ETV
vector 1167  CAIN.eNodeB.sctp  "Bandwidth 6:10.0.5.2"  ETV
vector 1163  CAIN.eNodeB.sctp  "RTO 6:10.0.5.2"  ETV
vector 916  CAIN.eNodeB.sctp  "HB ACK Sent 1:10.0.5.2"  ETV
vector 917  CAIN.eNodeB.sctp  "HB Received 1:10.0.5.2"  ETV
vector 965  CAIN.eNodeB1.sctp  "HB ACK Sent 2:10.0.5.1"  ETV
vector 966  CAIN.eNodeB1.sctp  "HB Received 2:10.0.5.1"  ETV
vector 1219  CAIN.eNodeB.sctp  "Slow Start Threshold 1:10.0.3.2"  ETV
vector 1220  CAIN.eNodeB.sctp  "Congestion Window 1:10.0.3.2"  ETV
vector 1221  CAIN.eNodeB.sctp  "Bandwidth 1:10.0.3.2"  ETV
vector 1224  CAIN.eNodeB.sctp  "HB Sent 1:10.0.3.2"  ETV
vector 1217  CAIN.eNodeB.sctp  "RTO 1:10.0.3.2"  ETV
vector 1192  CAIN.eNodeB.sctp  "Slow Start Threshold 1:10.0.4.2"  ETV
vector 1193  CAIN.eNodeB.sctp  "Congestion Window 1:10.0.4.2"  ETV
vector 1194  CAIN.eNodeB.sctp  "Bandwidth 1:10.0.4.2"  ETV
vector 1197  CAIN.eNodeB.sctp  "HB Sent 1:10.0.4.2"  ETV
vector 1190  CAIN.eNodeB.sctp  "RTO 1:10.0.4.2"  ETV
vector 910  CAIN.eNodeB.sctp  "Slow Start Threshold 1:10.0.5.2"  ETV
vector 911  CAIN.eNodeB.sctp  "Congestion Window 1:10.0.5.2"  ETV
vector 912  CAIN.eNodeB.sctp  "Bandwidth 1:10.0.5.2"  ETV
vector 908  CAIN.eNodeB.sctp  "RTO 1:10.0.5.2"  ETV
vector 1273  CAIN.eNodeB1.sctp  "Slow Start Threshold 2:10.0.2.2"  ETV
vector 1274  CAIN.eNodeB1.sctp  "Congestion Window 2:10.0.2.2"  ETV
vector 1275  CAIN.eNodeB1.sctp  "Bandwidth 2:10.0.2.2"  ETV
vector 1278  CAIN.eNodeB1.sctp  "HB Sent 2:10.0.2.2"  ETV
vector 1271  CAIN.eNodeB1.sctp  "RTO 2:10.0.2.2"  ETV
vector 1246  CAIN.eNodeB1.sctp  "Slow Start Threshold 2:10.0.4.1"  ETV
vector 1247  CAIN.eNodeB1.sctp  "Congestion Window 2:10.0.4.1"  ETV
vector 1248  CAIN.eNodeB1.sctp  "Bandwidth 2:10.0.4.1"  ETV
vector 1251  CAIN.eNodeB1.sctp  "HB Sent 2:10.0.4.1"  ETV
vector 1244  CAIN.eNodeB1.sctp  "RTO 2:10.0.4.1"  ETV
vector 959  CAIN.eNodeB1.sctp  "Slow Start Threshold 2:10.0.5.1"  ETV
vector 960  CAIN.eNodeB1.sctp  "Congestion Window 2:10.0.5.1"  ETV
vector 961  CAIN.eNodeB1.sctp  "Bandwidth 2:10.0.5.1"  ETV
vector 957  CAIN.eNodeB1.sctp  "RTO 2:10.0.5.1"  ETV
vector 1173  CAIN.eNodeB.sctp  "HB ACK Received 6:10.0.5.2"  ETV
vector 1164  CAIN.eNodeB.sctp  "RTT 6:10.0.5.2"  ETV
vector 1070  CAIN.eNodeB1.sctp  "HB ACK Received 5:10.0.5.1"  ETV
vector 1061  CAIN.eNodeB1.sctp  "RTT 5:10.0.5.1"  ETV
vector 1171  CAIN.eNodeB.sctp  "HB ACK Sent 6:10.0.5.2"  ETV
vector 1172  CAIN.eNodeB.sctp  "HB Received 6:10.0.5.2"  ETV
vector 1068  CAIN.eNodeB1.sctp  "HB ACK Sent 5:10.0.5.1"  ETV
vector 1069  CAIN.eNodeB1.sctp  "HB Received 5:10.0.5.1"  ETV
vector 967  CAIN.eNodeB1.sctp  "HB ACK Received 2:10.0.5.1"  ETV
vector 958  CAIN.eNodeB1.sctp  "RTT 2:10.0.5.1"  ETV
vector 918  CAIN.eNodeB.sctp  "HB ACK Received 1:10.0.5.2"  ETV
vector 909  CAIN.eNodeB.sctp  "RTT 1:10.0.5.2"  ETV
vector 96  CAIN.eNodeB.nic.mac  receivedPacketFromLowerLayer:vector(packetBytes)  ETV
attr interpolationmode  none
attr source  receivedPacketFromLowerLayer
vector 1305  CAIN.eNodeB.sctp  "SendQueue of Association 6"  ETV
vector 1168  CAIN.eNodeB.sctp  "TSN Sent 6:10.0.5.2"  ETV
vector 1175  CAIN.eNodeB.sctp  "Outstanding Bytes 6:10.0.5.2"  ETV
vector 848  CAIN.eNodeB.sctp  "Outstanding Bytes 3:Total"  ETV
vector 1174  CAIN.eNodeB.sctp  "Queued Sent Bytes 6:10.0.5.2"  ETV
vector 847  CAIN.eNodeB.sctp  "Queued Sent Bytes 3:Total"  ETV
vector 963  CAIN.eNodeB1.sctp  "TSN Received 2:10.0.5.1"  ETV
vector 939  CAIN.eNodeB1.sctp  "Queued Received Bytes 2:Total"  ETV
vector 935  CAIN.eNodeB1.sctp  "Advertised Receiver Window 2"  ETV
vector 944  CAIN.eNodeB1.sctp  "Number of Total Gap Blocks Stored 2"  ETV
vector 945  CAIN.eNodeB1.sctp  "Number of Revokable Gap Blocks Stored 2"  ETV
vector 946  CAIN.eNodeB1.sctp  "Number of Non-Revokable Gap Blocks Stored 2"  ETV
vector 947  CAIN.eNodeB1.sctp  "Number of Duplicate TSNs Stored 2"  ETV
vector 951  CAIN.eNodeB1.sctp  "Length of SACK Sent 2"  ETV
vector 948  CAIN.eNodeB1.sctp  "Number of Revokable Gap Blocks Sent 2"  ETV
vector 949  CAIN.eNodeB1.sctp  "Number of Non-Revokable Gap Blocks Sent 2"  ETV
vector 950  CAIN.eNodeB1.sctp  "Number of Duplicate TSNs Sent 2"  ETV
vector 955  CAIN.eNodeB1.sctp  "End to End Delay of Association 2"  ETV
vector 199  CAIN.eNodeB1.x2App[0].client  rcvdPk:vector(packetBytes)  ETV
attr interpolationmode  none
attr source  rcvdPk
attr title  "packets received, vector(packetBytes)"
vector 1304  CAIN.eNodeB.sctp  "Number of Gap Blocks in Last SACK of Association 6"  ETV
vector 849  CAIN.eNodeB.sctp  "Number of Revokable Gap Blocks in SACK 3"  ETV
vector 850  CAIN.eNodeB.sctp  "Number of Non-Revokable Gap Blocks in SACK 3"  ETV
vector 1185  CAIN.eNodeB.sctp  "TSN Acked CumAck 6:10.0.5.2"  ETV
vector 1151  CAIN.eNodeB.sctp  "Number of Gap Acked Chunks in Last SACK 6:10.0.3.2"  ETV
vector 1152  CAIN.eNodeB.sctp  "Number of Non-Revokable Gap Acked Chunks in Last SACK 6:10.0.3.2"  ETV
vector 1153  CAIN.eNodeB.sctp  "Number of Gap Missed Chunks in Last SACK 6:10.0.3.2"  ETV
vector 1124  CAIN.eNodeB.sctp  "Number of Gap Acked Chunks in Last SACK 6:10.0.4.2"  ETV
vector 1125  CAIN.eNodeB.sctp  "Number of Non-Revokable Gap Acked Chunks in Last SACK 6:10.0.4.2"  ETV
vector 1126  CAIN.eNodeB.sctp  "Number of Gap Missed Chunks in Last SACK 6:10.0.4.2"  ETV
vector 1178  CAIN.eNodeB.sctp  "Number of Gap Acked Chunks in Last SACK 6:10.0.5.2"  ETV
vector 1179  CAIN.eNodeB.sctp  "Number of Non-Revokable Gap Acked Chunks in Last SACK 6:10.0.5.2"  ETV
vector 1180  CAIN.eNodeB.sctp  "Number of Gap Missed Chunks in Last SACK 6:10.0.5.2"  ETV
vector 859  CAIN.eNodeB.sctp  "Arwnd in Last SACK 3"  ETV
vector 1187  CAIN.eNodeB.sctp  "TSN PseudoCumAck 6:10.0.5.2"  ETV
vector 1188  CAIN.eNodeB.sctp  "TSN RTXPseudoCumAck 6:10.0.5.2"  ETV
vector 1181  CAIN.eNodeB.sctp  "Partial Bytes Acked 6:10.0.5.2"  ETV
vector 1333  CAIN.ueD2DTx[12].tcp  tcpRcvQueueBytes  ETV
vector 1320  CAIN.ueD2DTx[12].tcp  "advertised window"  ETV
vector 1319  CAIN.ueD2DTx[12].tcp  "receive window"  ETV
vector 1322  CAIN.ueD2DTx[12].tcp  "sent ack"  ETV
vector 589  CAIN.ueD2DTx[12].nic.pdcpRrc  receivedPacketFromUpperLayer:vector(packetBytes)  ETV
attr interpolationmode  none
attr source  receivedPacketFromUpperLayer
vector 592  CAIN.ueD2DTx[12].nic.pdcpRrc  sentPacketToLowerLayer:vector(packetBytes)  ETV
attr interpolationmode  none
attr source  sentPacketToLowerLayer
vector 593  CAIN.ueD2DTx[12].nic.mac  receivedPacketFromUpperLayer:vector(packetBytes)  ETV
attr interpolationmode  none
attr source  receivedPacketFromUpperLayer
vector 603  CAIN.ueD2DTx[12].nic.mac  CainHopMessageSent:vector  ETV
attr interpolationmode  none
attr title  "# of Sent CAIN hop message, vector"
vector 596  CAIN.ueD2DTx[12].nic.mac  sentPacketToLowerLayer:vector(packetBytes)  ETV
attr interpolationmode  none
attr source  sentPacketToLowerLayer
vector 786  CAIN.ueD2DTx[18].nic.mac  receivedPacketFromLowerLayer:vector(packetBytes)  ETV
attr interpolationmode  none
attr source  receivedPacketFromLowerLayer
vector 788  CAIN.ueD2DTx[18].nic.mac  sentPacketToLowerLayer:vector(packetBytes)  ETV
attr interpolationmode  none
attr source  sentPacketToLowerLayer
vector 530  CAIN.ueD2DTx[10].nic.mac  receivedPacketFromLowerLayer:vector(packetBytes)  ETV
attr interpolationmode  none
attr source  receivedPacketFromLowerLayer
vector 532  CAIN.ueD2DTx[10].nic.mac  sentPacketToLowerLayer:vector(packetBytes)  ETV
attr interpolationmode  none
attr source  sentPacketToLowerLayer
vector 1357  CAIN.ueD2DTx[10].tcp  tcpRcvQueueBytes  ETV
vector 1344  CAIN.ueD2DTx[10].tcp  "advertised window"  ETV
vector 1343  CAIN.ueD2DTx[10].tcp  "receive window"  ETV
vector 1346  CAIN.ueD2DTx[10].tcp  "sent ack"  ETV
vector 525  CAIN.ueD2DTx[10].nic.pdcpRrc  receivedPacketFromUpperLayer:vector(packetBytes)  ETV
attr interpolationmode  none
attr source  receivedPacketFromUpperLayer
vector 528  CAIN.ueD2DTx[10].nic.pdcpRrc  sentPacketToLowerLayer:vector(packetBytes)  ETV
attr interpolationmode  none
attr source  sentPacketToLowerLayer
vector 529  CAIN.ueD2DTx[10].nic.mac  receivedPacketFromUpperLayer:vector(packetBytes)  ETV
attr interpolationmode  none
attr source  receivedPacketFromUpperLayer
vector 111  CAIN.eNodeB.nic.mac  racpkt:vector  ETV
attr interpolationmode  none
attr title  "eNB received racpkt message, vector"
vector 112  CAIN.eNodeB.nic.mac  racDistanceSignal:vector  ETV
attr interpolationmode  none
attr title  "Rac distance to enb, vector"
vector 113  CAIN.eNodeB.nic.mac  racServedDevsSignal:vector  ETV
attr interpolationmode  none
attr title  "# of devices served on rac arriavall, vector"
vector 106  CAIN.eNodeB.nic.mac  DistanceSignal:vector  ETV
attr interpolationmode  none
attr title  "Distance to enb, vector"
vector 101  CAIN.eNodeB.nic.mac  CainHopMessage:vector  ETV
attr interpolationmode  none
attr title  "eNB received CAIN hop message, vector"
vector 98  CAIN.eNodeB.nic.mac  sentPacketToLowerLayer:vector(packetBytes)  ETV
attr interpolationmode  none
attr source  sentPacketToLowerLayer
vector 537  CAIN.ueD2DTx[10].nic.mac  DropedHopMessage:vector  ETV
attr interpolationmode  none
attr title  "Droped Hop CAIN message due to RB not available, vector"
vector 1381  CAIN.ueD2DTx[3].tcp  tcpRcvQueueBytes  ETV
vector 1368  CAIN.ueD2DTx[3].tcp  "advertised window"  ETV
vector 1367  CAIN.ueD2DTx[3].tcp  "receive window"  ETV
vector 1370  CAIN.ueD2DTx[3].tcp  "sent ack"  ETV
vector 301  CAIN.ueD2DTx[3].nic.pdcpRrc  receivedPacketFromUpperLayer:vector(packetBytes)  ETV
attr interpolationmode  none
attr source  receivedPacketFromUpperLayer
vector 304  CAIN.ueD2DTx[3].nic.pdcpRrc  sentPacketToLowerLayer:vector(packetBytes)  ETV
attr interpolationmode  none
attr source  sentPacketToLowerLayer
vector 305  CAIN.ueD2DTx[3].nic.mac  receivedPacketFromUpperLayer:vector(packetBytes)  ETV
attr interpolationmode  none
attr source  receivedPacketFromUpperLayer
vector 315  CAIN.ueD2DTx[3].nic.mac  CainHopMessageSent:vector  ETV
attr interpolationmode  none
attr title  "# of Sent CAIN hop message, vector"
vector 308  CAIN.ueD2DTx[3].nic.mac  sentPacketToLowerLayer:vector(packetBytes)  ETV
attr interpolationmode  none
attr source  sentPacketToLowerLayer
vector 531  CAIN.ueD2DTx[10].nic.mac  sentPacketToUpperLayer:vector(packetBytes)  ETV
attr interpolationmode  none
attr source  sentPacketToUpperLayer
vector 115  CAIN.eNodeB.nic.phy  averageCqiUlvect:vector  ETV
attr source  averageCqiUlvect
attr title  "Average Cqi reported in UL, vector"
attr unit  cqi
vector 1405  CAIN.ueD2DTx[19].tcp  tcpRcvQueueBytes  ETV
vector 1392  CAIN.ueD2DTx[19].tcp  "advertised window"  ETV
vector 1391  CAIN.ueD2DTx[19].tcp  "receive window"  ETV
vector 1394  CAIN.ueD2DTx[19].tcp  "sent ack"  ETV
vector 813  CAIN.ueD2DTx[19].nic.pdcpRrc  receivedPacketFromUpperLayer:vector(packetBytes)  ETV
attr interpolationmode  none
attr source  receivedPacketFromUpperLayer
vector 816  CAIN.ueD2DTx[19].nic.pdcpRrc  sentPacketToLowerLayer:vector(packetBytes)  ETV
attr interpolationmode  none
attr source  sentPacketToLowerLayer
vector 817  CAIN.ueD2DTx[19].nic.mac  receivedPacketFromUpperLayer:vector(packetBytes)  ETV
attr interpolationmode  none
attr source  receivedPacketFromUpperLayer
vector 820  CAIN.ueD2DTx[19].nic.mac  sentPacketToLowerLayer:vector(packetBytes)  ETV
attr interpolationmode  none
attr source  sentPacketToLowerLayer
vector 109  CAIN.eNodeB.nic.mac  ServedHopDevs:vector  ETV
attr interpolationmode  none
attr title  "# of devices served on hop forwarding, vector"
vector 97  CAIN.eNodeB.nic.mac  sentPacketToUpperLayer:vector(packetBytes)  ETV
attr interpolationmode  none
attr source  sentPacketToUpperLayer
vector 99  CAIN.eNodeB.nic.mac  measuredItbs:vector  ETV
attr source  measuredItbs
attr title  "TBS index, vector"
attr unit  ""
vector 498  CAIN.ueD2DTx[9].nic.mac  receivedPacketFromLowerLayer:vector(packetBytes)  ETV
attr interpolationmode  none
attr source  receivedPacketFromLowerLayer
vector 500  CAIN.ueD2DTx[9].nic.mac  sentPacketToLowerLayer:vector(packetBytes)  ETV
attr interpolationmode  none
attr source  sentPacketToLowerLayer
vector 818  CAIN.ueD2DTx[19].nic.mac  receivedPacketFromLowerLayer:vector(packetBytes)  ETV
attr interpolationmode  none
attr source  receivedPacketFromLowerLayer
vector 562  CAIN.ueD2DTx[11].nic.mac  receivedPacketFromLowerLayer:vector(packetBytes)  ETV
attr interpolationmode  none
attr source  receivedPacketFromLowerLayer
vector 564  CAIN.ueD2DTx[11].nic.mac  sentPacketToLowerLayer:vector(packetBytes)  ETV
attr interpolationmode  none
attr source  sentPacketToLowerLayer
vector 1429  CAIN.ueD2DTx[16].tcp  tcpRcvQueueBytes  ETV
vector 1416  CAIN.ueD2DTx[16].tcp  "advertised window"  ETV
vector 1415  CAIN.ueD2DTx[16].tcp  "receive window"  ETV
vector 1418  CAIN.ueD2DTx[16].tcp  "sent ack"  ETV
vector 717  CAIN.ueD2DTx[16].nic.pdcpRrc  receivedPacketFromUpperLayer:vector(packetBytes)  ETV
attr interpolationmode  none
attr source  receivedPacketFromUpperLayer
vector 720  CAIN.ueD2DTx[16].nic.pdcpRrc  sentPacketToLowerLayer:vector(packetBytes)  ETV
attr interpolationmode  none
attr source  sentPacketToLowerLayer
vector 721  CAIN.ueD2DTx[16].nic.mac  receivedPacketFromUpperLayer:vector(packetBytes)  ETV
attr interpolationmode  none
attr source  receivedPacketFromUpperLayer
vector 731  CAIN.ueD2DTx[16].nic.mac  CainHopMessageSent:vector  ETV
attr interpolationmode  none
attr title  "# of Sent CAIN hop message, vector"
vector 724  CAIN.ueD2DTx[16].nic.mac  sentPacketToLowerLayer:vector(packetBytes)  ETV
attr interpolationmode  none
attr source  sentPacketToLowerLayer
vector 819  CAIN.ueD2DTx[19].nic.mac  sentPacketToUpperLayer:vector(packetBytes)  ETV
attr interpolationmode  none
attr source  sentPacketToUpperLayer
vector 569  CAIN.ueD2DTx[11].nic.mac  DropedHopMessage:vector  ETV
attr interpolationmode  none
attr title  "Droped Hop CAIN message due to RB not available, vector"
vector 242  CAIN.ueD2DTx[1].nic.mac  receivedPacketFromLowerLayer:vector(packetBytes)  ETV
attr interpolationmode  none
attr source  receivedPacketFromLowerLayer
vector 244  CAIN.ueD2DTx[1].nic.mac  sentPacketToLowerLayer:vector(packetBytes)  ETV
attr interpolationmode  none
attr source  sentPacketToLowerLayer
vector 92  CAIN.eNodeB.nic.pdcpRrc  receivedPacketFromLowerLayer:vector(packetBytes)  ETV
attr interpolationmode  none
attr source  receivedPacketFromLowerLayer
vector 93  CAIN.eNodeB.nic.pdcpRrc  sentPacketToUpperLayer:vector(packetBytes)  ETV
attr interpolationmode  none
attr source  sentPacketToUpperLayer
vector 86  CAIN.eNodeB.udp  sentPk:vector(packetBytes)  ETV
attr interpolationmode  none
attr source  sentPk
attr title  "packets sent, vector(packetBytes)"
vector 249  CAIN.ueD2DTx[1].nic.mac  DropedHopMessage:vector  ETV
attr interpolationmode  none
attr title  "Droped Hop CAIN message due to RB not available, vector"
vector 145  CAIN.eNodeB1.udp  rcvdPk:vector(packetBytes)  ETV
attr interpolationmode  none
attr source  rcvdPk
attr title  "packets received, vector(packetBytes)"
vector 146  CAIN.eNodeB1.udp  passedUpPk:vector(count)  ETV
attr interpolationmode  none
attr title  "packets passed up, vector(count)"
vector 1453  CAIN.ueD2DTx[5].tcp  tcpRcvQueueBytes  ETV
vector 1440  CAIN.ueD2DTx[5].tcp  "advertised window"  ETV
vector 1439  CAIN.ueD2DTx[5].tcp  "receive window"  ETV
vector 1442  CAIN.ueD2DTx[5].tcp  "sent ack"  ETV
vector 365  CAIN.ueD2DTx[5].nic.pdcpRrc  receivedPacketFromUpperLayer:vector(packetBytes)  ETV
attr interpolationmode  none
attr source  receivedPacketFromUpperLayer
vector 368  CAIN.ueD2DTx[5].nic.pdcpRrc  sentPacketToLowerLayer:vector(packetBytes)  ETV
attr interpolationmode  none
attr source  sentPacketToLowerLayer
vector 369  CAIN.ueD2DTx[5].nic.mac  receivedPacketFromUpperLayer:vector(packetBytes)  ETV
attr interpolationmode  none
attr source  receivedPacketFromUpperLayer
vector 379  CAIN.ueD2DTx[5].nic.mac  CainHopMessageSent:vector  ETV
attr interpolationmode  none
attr title  "# of Sent CAIN hop message, vector"
vector 372  CAIN.ueD2DTx[5].nic.mac  sentPacketToLowerLayer:vector(packetBytes)  ETV
attr interpolationmode  none
attr source  sentPacketToLowerLayer
vector 722  CAIN.ueD2DTx[16].nic.mac  receivedPacketFromLowerLayer:vector(packetBytes)  ETV
attr interpolationmode  none
attr source  receivedPacketFromLowerLayer
vector 1477  CAIN.ueD2DTx[13].tcp  tcpRcvQueueBytes  ETV
vector 1464  CAIN.ueD2DTx[13].tcp  "advertised window"  ETV
vector 1463  CAIN.ueD2DTx[13].tcp  "receive window"  ETV
vector 1466  CAIN.ueD2DTx[13].tcp  "sent ack"  ETV
vector 621  CAIN.ueD2DTx[13].nic.pdcpRrc  receivedPacketFromUpperLayer:vector(packetBytes)  ETV
attr interpolationmode  none
attr source  receivedPacketFromUpperLayer
vector 624  CAIN.ueD2DTx[13].nic.pdcpRrc  sentPacketToLowerLayer:vector(packetBytes)  ETV
attr interpolationmode  none
attr source  sentPacketToLowerLayer
vector 625  CAIN.ueD2DTx[13].nic.mac  receivedPacketFromUpperLayer:vector(packetBytes)  ETV
attr interpolationmode  none
attr source  receivedPacketFromUpperLayer
vector 635  CAIN.ueD2DTx[13].nic.mac  CainHopMessageSent:vector  ETV
attr interpolationmode  none
attr title  "# of Sent CAIN hop message, vector"
vector 628  CAIN.ueD2DTx[13].nic.mac  sentPacketToLowerLayer:vector(packetBytes)  ETV
attr interpolationmode  none
attr source  sentPacketToLowerLayer
vector 1501  CAIN.ueD2DTx[11].tcp  tcpRcvQueueBytes  ETV
vector 1488  CAIN.ueD2DTx[11].tcp  "advertised window"  ETV
vector 1487  CAIN.ueD2DTx[11].tcp  "receive window"  ETV
vector 1490  CAIN.ueD2DTx[11].tcp  "sent ack"  ETV
vector 557  CAIN.ueD2DTx[11].nic.pdcpRrc  receivedPacketFromUpperLayer:vector(packetBytes)  ETV
attr interpolationmode  none
attr source  receivedPacketFromUpperLayer
vector 560  CAIN.ueD2DTx[11].nic.pdcpRrc  sentPacketToLowerLayer:vector(packetBytes)  ETV
attr interpolationmode  none
attr source  sentPacketToLowerLayer
vector 561  CAIN.ueD2DTx[11].nic.mac  receivedPacketFromUpperLayer:vector(packetBytes)  ETV
attr interpolationmode  none
attr source  receivedPacketFromUpperLayer
vector 1525  CAIN.ueD2DTx[8].tcp  tcpRcvQueueBytes  ETV
vector 1512  CAIN.ueD2DTx[8].tcp  "advertised window"  ETV
vector 1511  CAIN.ueD2DTx[8].tcp  "receive window"  ETV
vector 1514  CAIN.ueD2DTx[8].tcp  "sent ack"  ETV
vector 461  CAIN.ueD2DTx[8].nic.pdcpRrc  receivedPacketFromUpperLayer:vector(packetBytes)  ETV
attr interpolationmode  none
attr source  receivedPacketFromUpperLayer
vector 464  CAIN.ueD2DTx[8].nic.pdcpRrc  sentPacketToLowerLayer:vector(packetBytes)  ETV
attr interpolationmode  none
attr source  sentPacketToLowerLayer
vector 465  CAIN.ueD2DTx[8].nic.mac  receivedPacketFromUpperLayer:vector(packetBytes)  ETV
attr interpolationmode  none
attr source  receivedPacketFromUpperLayer
vector 468  CAIN.ueD2DTx[8].nic.mac  sentPacketToLowerLayer:vector(packetBytes)  ETV
attr interpolationmode  none
attr source  sentPacketToLowerLayer
vector 1549  CAIN.ueD2DTx[14].tcp  tcpRcvQueueBytes  ETV
vector 1536  CAIN.ueD2DTx[14].tcp  "advertised window"  ETV
vector 1535  CAIN.ueD2DTx[14].tcp  "receive window"  ETV
vector 1538  CAIN.ueD2DTx[14].tcp  "sent ack"  ETV
vector 653  CAIN.ueD2DTx[14].nic.pdcpRrc  receivedPacketFromUpperLayer:vector(packetBytes)  ETV
attr interpolationmode  none
attr source  receivedPacketFromUpperLayer
vector 656  CAIN.ueD2DTx[14].nic.pdcpRrc  sentPacketToLowerLayer:vector(packetBytes)  ETV
attr interpolationmode  none
attr source  sentPacketToLowerLayer
vector 657  CAIN.ueD2DTx[14].nic.mac  receivedPacketFromUpperLayer:vector(packetBytes)  ETV
attr interpolationmode  none
attr source  receivedPacketFromUpperLayer
vector 667  CAIN.ueD2DTx[14].nic.mac  CainHopMessageSent:vector  ETV
attr interpolationmode  none
attr title  "# of Sent CAIN hop message, vector"
vector 660  CAIN.ueD2DTx[14].nic.mac  sentPacketToLowerLayer:vector(packetBytes)  ETV
attr interpolationmode  none
attr source  sentPacketToLowerLayer
vector 466  CAIN.ueD2DTx[8].nic.mac  receivedPacketFromLowerLayer:vector(packetBytes)  ETV
attr interpolationmode  none
attr source  receivedPacketFromLowerLayer
vector 149  CAIN.eNodeB1.nic.pdcpRrc  receivedPacketFromUpperLayer:vector(packetBytes)  ETV
attr interpolationmode  none
attr source  receivedPacketFromUpperLayer
vector 152  CAIN.eNodeB1.nic.pdcpRrc  sentPacketToLowerLayer:vector(packetBytes)  ETV
attr interpolationmode  none
attr source  sentPacketToLowerLayer
vector 1301  CAIN.eNodeB1.sctp  "SendQueue of Association 5"  ETV
vector 1065  CAIN.eNodeB1.sctp  "TSN Sent 5:10.0.5.1"  ETV
vector 1072  CAIN.eNodeB1.sctp  "Outstanding Bytes 5:10.0.5.1"  ETV
vector 870  CAIN.eNodeB1.sctp  "Outstanding Bytes 4:Total"  ETV
vector 1071  CAIN.eNodeB1.sctp  "Queued Sent Bytes 5:10.0.5.1"  ETV
vector 869  CAIN.eNodeB1.sctp  "Queued Sent Bytes 4:Total"  ETV
vector 153  CAIN.eNodeB1.nic.mac  receivedPacketFromUpperLayer:vector(packetBytes)  ETV
attr interpolationmode  none
attr source  receivedPacketFromUpperLayer
vector 914  CAIN.eNodeB.sctp  "TSN Received 1:10.0.5.2"  ETV
vector 890  CAIN.eNodeB.sctp  "Queued Received Bytes 1:Total"  ETV
vector 886  CAIN.eNodeB.sctp  "Advertised Receiver Window 1"  ETV
vector 895  CAIN.eNodeB.sctp  "Number of Total Gap Blocks Stored 1"  ETV
vector 896  CAIN.eNodeB.sctp  "Number of Revokable Gap Blocks Stored 1"  ETV
vector 897  CAIN.eNodeB.sctp  "Number of Non-Revokable Gap Blocks Stored 1"  ETV
vector 898  CAIN.eNodeB.sctp  "Number of Duplicate TSNs Stored 1"  ETV
vector 902  CAIN.eNodeB.sctp  "Length of SACK Sent 1"  ETV
vector 899  CAIN.eNodeB.sctp  "Number of Revokable Gap Blocks Sent 1"  ETV
vector 900  CAIN.eNodeB.sctp  "Number of Non-Revokable Gap Blocks Sent 1"  ETV
vector 901  CAIN.eNodeB.sctp  "Number of Duplicate TSNs Sent 1"  ETV
vector 906  CAIN.eNodeB.sctp  "End to End Delay of Association 1"  ETV
vector 141  CAIN.eNodeB.x2App[0].client  rcvdPk:vector(packetBytes)  ETV
attr interpolationmode  none
attr source  rcvdPk
attr title  "packets received, vector(packetBytes)"
vector 1300  CAIN.eNodeB1.sctp  "Number of Gap Blocks in Last SACK of Association 5"  ETV
vector 871  CAIN.eNodeB1.sctp  "Number of Revokable Gap Blocks in SACK 4"  ETV
vector 872  CAIN.eNodeB1.sctp  "Number of Non-Revokable Gap Blocks in SACK 4"  ETV
vector 1082  CAIN.eNodeB1.sctp  "TSN Acked CumAck 5:10.0.5.1"  ETV
vector 1048  CAIN.eNodeB1.sctp  "Number of Gap Acked Chunks in Last SACK 5:10.0.2.2"  ETV
vector 1049  CAIN.eNodeB1.sctp  "Number of Non-Revokable Gap Acked Chunks in Last SACK 5:10.0.2.2"  ETV
vector 1050  CAIN.eNodeB1.sctp  "Number of Gap Missed Chunks in Last SACK 5:10.0.2.2"  ETV
vector 1021  CAIN.eNodeB1.sctp  "Number of Gap Acked Chunks in Last SACK 5:10.0.4.1"  ETV
vector 1022  CAIN.eNodeB1.sctp  "Number of Non-Revokable Gap Acked Chunks in Last SACK 5:10.0.4.1"  ETV
vector 1023  CAIN.eNodeB1.sctp  "Number of Gap Missed Chunks in Last SACK 5:10.0.4.1"  ETV
vector 1075  CAIN.eNodeB1.sctp  "Number of Gap Acked Chunks in Last SACK 5:10.0.5.1"  ETV
vector 1076  CAIN.eNodeB1.sctp  "Number of Non-Revokable Gap Acked Chunks in Last SACK 5:10.0.5.1"  ETV
vector 1077  CAIN.eNodeB1.sctp  "Number of Gap Missed Chunks in Last SACK 5:10.0.5.1"  ETV
vector 881  CAIN.eNodeB1.sctp  "Arwnd in Last SACK 4"  ETV
vector 1084  CAIN.eNodeB1.sctp  "TSN PseudoCumAck 5:10.0.5.1"  ETV
vector 1085  CAIN.eNodeB1.sctp  "TSN RTXPseudoCumAck 5:10.0.5.1"  ETV
vector 1078  CAIN.eNodeB1.sctp  "Partial Bytes Acked 5:10.0.5.1"  ETV
vector 467  CAIN.ueD2DTx[8].nic.mac  sentPacketToUpperLayer:vector(packetBytes)  ETV
attr interpolationmode  none
attr source  sentPacketToUpperLayer
vector 1573  CAIN.ueD2DTx[7].tcp  tcpRcvQueueBytes  ETV
vector 1560  CAIN.ueD2DTx[7].tcp  "advertised window"  ETV
vector 1559  CAIN.ueD2DTx[7].tcp  "receive window"  ETV
vector 1562  CAIN.ueD2DTx[7].tcp  "sent ack"  ETV
vector 429  CAIN.ueD2DTx[7].nic.pdcpRrc  receivedPacketFromUpperLayer:vector(packetBytes)  ETV
attr interpolationmode  none
attr source  receivedPacketFromUpperLayer
vector 432  CAIN.ueD2DTx[7].nic.pdcpRrc  sentPacketToLowerLayer:vector(packetBytes)  ETV
attr interpolationmode  none
attr source  sentPacketToLowerLayer
vector 433  CAIN.ueD2DTx[7].nic.mac  receivedPacketFromUpperLayer:vector(packetBytes)  ETV
attr interpolationmode  none
attr source  receivedPacketFromUpperLayer
vector 436  CAIN.ueD2DTx[7].nic.mac  sentPacketToLowerLayer:vector(packetBytes)  ETV
attr interpolationmode  none
attr source  sentPacketToLowerLayer
vector 1597  CAIN.ueD2DTx[2].tcp  tcpRcvQueueBytes  ETV
vector 1584  CAIN.ueD2DTx[2].tcp  "advertised window"  ETV
vector 1583  CAIN.ueD2DTx[2].tcp  "receive window"  ETV
vector 1586  CAIN.ueD2DTx[2].tcp  "sent ack"  ETV
vector 269  CAIN.ueD2DTx[2].nic.pdcpRrc  receivedPacketFromUpperLayer:vector(packetBytes)  ETV
attr interpolationmode  none
attr source  receivedPacketFromUpperLayer
vector 272  CAIN.ueD2DTx[2].nic.pdcpRrc  sentPacketToLowerLayer:vector(packetBytes)  ETV
attr interpolationmode  none
attr source  sentPacketToLowerLayer
vector 273  CAIN.ueD2DTx[2].nic.mac  receivedPacketFromUpperLayer:vector(packetBytes)  ETV
attr interpolationmode  none
attr source  receivedPacketFromUpperLayer
vector 282  CAIN.ueD2DTx[2].nic.mac  CainMessageSent:vector  ETV
attr interpolationmode  none
attr title  "# of Sent CAIN message, vector"
vector 276  CAIN.ueD2DTx[2].nic.mac  sentPacketToLowerLayer:vector(packetBytes)  ETV
attr interpolationmode  none
attr source  sentPacketToLowerLayer
vector 434  CAIN.ueD2DTx[7].nic.mac  receivedPacketFromLowerLayer:vector(packetBytes)  ETV
attr interpolationmode  none
attr source  receivedPacketFromLowerLayer
vector 154  CAIN.eNodeB1.nic.mac  receivedPacketFromLowerLayer:vector(packetBytes)  ETV
attr interpolationmode  none
attr source  receivedPacketFromLowerLayer
vector 435  CAIN.ueD2DTx[7].nic.mac  sentPacketToUpperLayer:vector(packetBytes)  ETV
attr interpolationmode  none
attr source  sentPacketToUpperLayer
vector 100  CAIN.eNodeB.nic.mac  CainMessage:vector  ETV
attr interpolationmode  none
attr title  "eNB received CAIN message, vector"
vector 108  CAIN.eNodeB.nic.mac  ServedDevs:vector  ETV
attr interpolationmode  none
attr title  "# of devices served on cain forwarding, vector"
vector 1621  CAIN.ueD2DTx[1].tcp  tcpRcvQueueBytes  ETV
vector 1608  CAIN.ueD2DTx[1].tcp  "advertised window"  ETV
vector 1607  CAIN.ueD2DTx[1].tcp  "receive window"  ETV
vector 1610  CAIN.ueD2DTx[1].tcp  "sent ack"  ETV
vector 237  CAIN.ueD2DTx[1].nic.pdcpRrc  receivedPacketFromUpperLayer:vector(packetBytes)  ETV
attr interpolationmode  none
attr source  receivedPacketFromUpperLayer
vector 240  CAIN.ueD2DTx[1].nic.pdcpRrc  sentPacketToLowerLayer:vector(packetBytes)  ETV
attr interpolationmode  none
attr source  sentPacketToLowerLayer
vector 241  CAIN.ueD2DTx[1].nic.mac  receivedPacketFromUpperLayer:vector(packetBytes)  ETV
attr interpolationmode  none
attr source  receivedPacketFromUpperLayer
vector 117  CAIN.eNodeB.pppIf.queue  rcvdPk:vector(packetBytes)  ETV
attr interpolationmode  none
attr title  "received packets, vector(packetBytes)"
vector 119  CAIN.eNodeB.pppIf.queue  queueingTime:vector  ETV
attr interpolationmode  none
attr title  "queueing time, vector"
vector 126  CAIN.eNodeB.pppIf.ppp  rcvdPkFromHL:vector(packetBytes)  ETV
attr interpolationmode  none
attr source  packetReceivedFromUpper
attr title  "packets received from higher layer, vector(packetBytes)"
vector 122  CAIN.eNodeB.pppIf.ppp  txPk:vector(packetBytes)  ETV
attr interpolationmode  none
attr source  packetSentToLower
attr title  "packets transmitted, vector(packetBytes)"
vector 59  CAIN.pgw.ppp[0].ppp  rxPkOk:vector(packetBytes)  ETV
attr interpolationmode  none
attr source  rxPkOk
attr title  "packets received OK, vector(packetBytes)"
vector 63  CAIN.pgw.ppp[0].ppp  passedUpPk:vector(packetBytes)  ETV
attr interpolationmode  none
attr source  packetSentToUpper
attr title  "packets passed to higher layer, vector(packetBytes)"
vector 44  CAIN.pgw.udp  rcvdPk:vector(packetBytes)  ETV
attr interpolationmode  none
attr source  rcvdPk
attr title  "packets received, vector(packetBytes)"
vector 45  CAIN.pgw.udp  passedUpPk:vector(count)  ETV
attr interpolationmode  none
attr title  "packets passed up, vector(count)"
vector 43  CAIN.pgw.udp  sentPk:vector(packetBytes)  ETV
attr interpolationmode  none
attr source  sentPk
attr title  "packets sent, vector(packetBytes)"
vector 64  CAIN.pgw.ppp[1].queue  rcvdPk:vector(packetBytes)  ETV
attr interpolationmode  none
attr title  "received packets, vector(packetBytes)"
vector 66  CAIN.pgw.ppp[1].queue  queueingTime:vector  ETV
attr interpolationmode  none
attr title  "queueing time, vector"
vector 73  CAIN.pgw.ppp[1].ppp  rcvdPkFromHL:vector(packetBytes)  ETV
attr interpolationmode  none
attr source  packetReceivedFromUpper
attr title  "packets received from higher layer, vector(packetBytes)"
vector 69  CAIN.pgw.ppp[1].ppp  txPk:vector(packetBytes)  ETV
attr interpolationmode  none
attr source  packetSentToLower
attr title  "packets transmitted, vector(packetBytes)"
vector 181  CAIN.eNodeB1.pppIf.ppp  rxPkOk:vector(packetBytes)  ETV
attr interpolationmode  none
attr source  rxPkOk
attr title  "packets received OK, vector(packetBytes)"
vector 185  CAIN.eNodeB1.pppIf.ppp  passedUpPk:vector(packetBytes)  ETV
attr interpolationmode  none
attr source  packetSentToUpper
attr title  "packets passed to higher layer, vector(packetBytes)"
vector 1645  CAIN.ueD2DTx[17].tcp  tcpRcvQueueBytes  ETV
vector 1632  CAIN.ueD2DTx[17].tcp  "advertised window"  ETV
vector 1631  CAIN.ueD2DTx[17].tcp  "receive window"  ETV
vector 1634  CAIN.ueD2DTx[17].tcp  "sent ack"  ETV
vector 749  CAIN.ueD2DTx[17].nic.pdcpRrc  receivedPacketFromUpperLayer:vector(packetBytes)  ETV
attr interpolationmode  none
attr source  receivedPacketFromUpperLayer
vector 752  CAIN.ueD2DTx[17].nic.pdcpRrc  sentPacketToLowerLayer:vector(packetBytes)  ETV
attr interpolationmode  none
attr source  sentPacketToLowerLayer
vector 753  CAIN.ueD2DTx[17].nic.mac  receivedPacketFromUpperLayer:vector(packetBytes)  ETV
attr interpolationmode  none
attr source  receivedPacketFromUpperLayer
vector 1669  CAIN.ueD2DTx[6].tcp  tcpRcvQueueBytes  ETV
vector 1656  CAIN.ueD2DTx[6].tcp  "advertised window"  ETV
vector 1655  CAIN.ueD2DTx[6].tcp  "receive window"  ETV
vector 1658  CAIN.ueD2DTx[6].tcp  "sent ack"  ETV
vector 397  CAIN.ueD2DTx[6].nic.pdcpRrc  receivedPacketFromUpperLayer:vector(packetBytes)  ETV
attr interpolationmode  none
attr source  receivedPacketFromUpperLayer
vector 400  CAIN.ueD2DTx[6].nic.pdcpRrc  sentPacketToLowerLayer:vector(packetBytes)  ETV
attr interpolationmode  none
attr source  sentPacketToLowerLayer
vector 401  CAIN.ueD2DTx[6].nic.mac  receivedPacketFromUpperLayer:vector(packetBytes)  ETV
attr interpolationmode  none
attr source  receivedPacketFromUpperLayer
vector 404  CAIN.ueD2DTx[6].nic.mac  sentPacketToLowerLayer:vector(packetBytes)  ETV
attr interpolationmode  none
attr source  sentPacketToLowerLayer
vector 243  CAIN.ueD2DTx[1].nic.mac  sentPacketToUpperLayer:vector(packetBytes)  ETV
attr interpolationmode  none
attr source  sentPacketToUpperLayer
vector 169  CAIN.eNodeB1.nic.mac  racpkt:vector  ETV
attr interpolationmode  none
attr title  "eNB received racpkt message, vector"
vector 170  CAIN.eNodeB1.nic.mac  racDistanceSignal:vector  ETV
attr interpolationmode  none
attr title  "Rac distance to enb, vector"
vector 171  CAIN.eNodeB1.nic.mac  racServedDevsSignal:vector  ETV
attr interpolationmode  none
attr title  "# of devices served on rac arriavall, vector"
vector 156  CAIN.eNodeB1.nic.mac  sentPacketToLowerLayer:vector(packetBytes)  ETV
attr interpolationmode  none
attr source  sentPacketToLowerLayer
vector 402  CAIN.ueD2DTx[6].nic.mac  receivedPacketFromLowerLayer:vector(packetBytes)  ETV
attr interpolationmode  none
attr source  receivedPacketFromLowerLayer
vector 1693  CAIN.ueD2DTx[9].tcp  tcpRcvQueueBytes  ETV
vector 1680  CAIN.ueD2DTx[9].tcp  "advertised window"  ETV
vector 1679  CAIN.ueD2DTx[9].tcp  "receive window"  ETV
vector 1682  CAIN.ueD2DTx[9].tcp  "sent ack"  ETV
vector 493  CAIN.ueD2DTx[9].nic.pdcpRrc  receivedPacketFromUpperLayer:vector(packetBytes)  ETV
attr interpolationmode  none
attr source  receivedPacketFromUpperLayer
vector 496  CAIN.ueD2DTx[9].nic.pdcpRrc  sentPacketToLowerLayer:vector(packetBytes)  ETV
attr interpolationmode  none
attr source  sentPacketToLowerLayer
vector 497  CAIN.ueD2DTx[9].nic.mac  receivedPacketFromUpperLayer:vector(packetBytes)  ETV
attr interpolationmode  none
attr source  receivedPacketFromUpperLayer
vector 1717  CAIN.ueD2DTx[4].tcp  tcpRcvQueueBytes  ETV
vector 1704  CAIN.ueD2DTx[4].tcp  "advertised window"  ETV
vector 1703  CAIN.ueD2DTx[4].tcp  "receive window"  ETV
vector 1706  CAIN.ueD2DTx[4].tcp  "sent ack"  ETV
vector 333  CAIN.ueD2DTx[4].nic.pdcpRrc  receivedPacketFromUpperLayer:vector(packetBytes)  ETV
attr interpolationmode  none
attr source  receivedPacketFromUpperLayer
vector 336  CAIN.ueD2DTx[4].nic.pdcpRrc  sentPacketToLowerLayer:vector(packetBytes)  ETV
attr interpolationmode  none
attr source  sentPacketToLowerLayer
vector 337  CAIN.ueD2DTx[4].nic.mac  receivedPacketFromUpperLayer:vector(packetBytes)  ETV
attr interpolationmode  none
attr source  receivedPacketFromUpperLayer
vector 347  CAIN.ueD2DTx[4].nic.mac  CainHopMessageSent:vector  ETV
attr interpolationmode  none
attr title  "# of Sent CAIN hop message, vector"
vector 340  CAIN.ueD2DTx[4].nic.mac  sentPacketToLowerLayer:vector(packetBytes)  ETV
attr interpolationmode  none
attr source  sentPacketToLowerLayer
vector 1741  CAIN.ueD2DTx[0].tcp  tcpRcvQueueBytes  ETV
vector 1728  CAIN.ueD2DTx[0].tcp  "advertised window"  ETV
vector 1727  CAIN.ueD2DTx[0].tcp  "receive window"  ETV
vector 1730  CAIN.ueD2DTx[0].tcp  "sent ack"  ETV
vector 205  CAIN.ueD2DTx[0].nic.pdcpRrc  receivedPacketFromUpperLayer:vector(packetBytes)  ETV
attr interpolationmode  none
attr source  receivedPacketFromUpperLayer
vector 208  CAIN.ueD2DTx[0].nic.pdcpRrc  sentPacketToLowerLayer:vector(packetBytes)  ETV
attr interpolationmode  none
attr source  sentPacketToLowerLayer
vector 209  CAIN.ueD2DTx[0].nic.mac  receivedPacketFromUpperLayer:vector(packetBytes)  ETV
attr interpolationmode  none
attr source  receivedPacketFromUpperLayer
vector 212  CAIN.ueD2DTx[0].nic.mac  sentPacketToLowerLayer:vector(packetBytes)  ETV
attr interpolationmode  none
attr source  sentPacketToLowerLayer
vector 1765  CAIN.ueD2DTx[15].tcp  tcpRcvQueueBytes  ETV
vector 1752  CAIN.ueD2DTx[15].tcp  "advertised window"  ETV
vector 1751  CAIN.ueD2DTx[15].tcp  "receive window"  ETV
vector 1754  CAIN.ueD2DTx[15].tcp  "sent ack"  ETV
vector 685  CAIN.ueD2DTx[15].nic.pdcpRrc  receivedPacketFromUpperLayer:vector(packetBytes)  ETV
attr interpolationmode  none
attr source  receivedPacketFromUpperLayer
vector 688  CAIN.ueD2DTx[15].nic.pdcpRrc  sentPacketToLowerLayer:vector(packetBytes)  ETV
attr interpolationmode  none
attr source  sentPacketToLowerLayer
vector 689  CAIN.ueD2DTx[15].nic.mac  receivedPacketFromUpperLayer:vector(packetBytes)  ETV
attr interpolationmode  none
attr source  receivedPacketFromUpperLayer
vector 692  CAIN.ueD2DTx[15].nic.mac  sentPacketToLowerLayer:vector(packetBytes)  ETV
attr interpolationmode  none
attr source  sentPacketToLowerLayer
vector 210  CAIN.ueD2DTx[0].nic.mac  receivedPacketFromLowerLayer:vector(packetBytes)  ETV
attr interpolationmode  none
attr source  receivedPacketFromLowerLayer
vector 690  CAIN.ueD2DTx[15].nic.mac  receivedPacketFromLowerLayer:vector(packetBytes)  ETV
attr interpolationmode  none
attr source  receivedPacketFromLowerLayer
vector 1789  CAIN.ueD2DTx[18].tcp  tcpRcvQueueBytes  ETV
vector 1776  CAIN.ueD2DTx[18].tcp  "advertised window"  ETV
vector 1775  CAIN.ueD2DTx[18].tcp  "receive window"  ETV
vector 1778  CAIN.ueD2DTx[18].tcp  "sent ack"  ETV
vector 781  CAIN.ueD2DTx[18].nic.pdcpRrc  receivedPacketFromUpperLayer:vector(packetBytes)  ETV
attr interpolationmode  none
attr source  receivedPacketFromUpperLayer
vector 784  CAIN.ueD2DTx[18].nic.pdcpRrc  sentPacketToLowerLayer:vector(packetBytes)  ETV
attr interpolationmode  none
attr source  sentPacketToLowerLayer
vector 785  CAIN.ueD2DTx[18].nic.mac  receivedPacketFromUpperLayer:vector(packetBytes)  ETV
attr interpolationmode  none
attr source  receivedPacketFromUpperLayer
vector 794  CAIN.ueD2DTx[18].nic.mac  CainMessageSent:vector  ETV
attr interpolationmode  none
attr title  "# of Sent CAIN message, vector"
vector 691  CAIN.ueD2DTx[15].nic.mac  sentPacketToUpperLayer:vector(packetBytes)  ETV
attr interpolationmode  none
attr source  sentPacketToUpperLayer
vector 594  CAIN.ueD2DTx[12].nic.mac  receivedPacketFromLowerLayer:vector(packetBytes)  ETV
attr interpolationmode  none
attr source  receivedPacketFromLowerLayer
vector 595  CAIN.ueD2DTx[12].nic.mac  sentPacketToUpperLayer:vector(packetBytes)  ETV
attr interpolationmode  none
attr source  sentPacketToUpperLayer
vector 173  CAIN.eNodeB1.nic.phy  averageCqiUlvect:vector  ETV
attr source  averageCqiUlvect
attr title  "Average Cqi reported in UL, vector"
attr unit  cqi
vector 155  CAIN.eNodeB1.nic.mac  sentPacketToUpperLayer:vector(packetBytes)  ETV
attr interpolationmode  none
attr source  sentPacketToUpperLayer
vector 157  CAIN.eNodeB1.nic.mac  measuredItbs:vector  ETV
attr source  measuredItbs
attr title  "TBS index, vector"
attr unit  ""
vector 306  CAIN.ueD2DTx[3].nic.mac  receivedPacketFromLowerLayer:vector(packetBytes)  ETV
attr interpolationmode  none
attr source  receivedPacketFromLowerLayer
vector 307  CAIN.ueD2DTx[3].nic.mac  sentPacketToUpperLayer:vector(packetBytes)  ETV
attr interpolationmode  none
attr source  sentPacketToUpperLayer
vector 795  CAIN.ueD2DTx[18].nic.mac  CainHopMessageSent:vector  ETV
attr interpolationmode  none
attr title  "# of Sent CAIN hop message, vector"
vector 274  CAIN.ueD2DTx[2].nic.mac  receivedPacketFromLowerLayer:vector(packetBytes)  ETV
attr interpolationmode  none
attr source  receivedPacketFromLowerLayer
vector 150  CAIN.eNodeB1.nic.pdcpRrc  receivedPacketFromLowerLayer:vector(packetBytes)  ETV
attr interpolationmode  none
attr source  receivedPacketFromLowerLayer
vector 151  CAIN.eNodeB1.nic.pdcpRrc  sentPacketToUpperLayer:vector(packetBytes)  ETV
attr interpolationmode  none
attr source  sentPacketToUpperLayer
vector 626  CAIN.ueD2DTx[13].nic.mac  receivedPacketFromLowerLayer:vector(packetBytes)  ETV
attr interpolationmode  none
attr source  receivedPacketFromLowerLayer
vector 634  CAIN.ueD2DTx[13].nic.mac  CainMessageSent:vector  ETV
attr interpolationmode  none
attr title  "# of Sent CAIN message, vector"
vector 666  CAIN.ueD2DTx[14].nic.mac  CainMessageSent:vector  ETV
attr interpolationmode  none
attr title  "# of Sent CAIN message, vector"
vector 563  CAIN.ueD2DTx[11].nic.mac  sentPacketToUpperLayer:vector(packetBytes)  ETV
attr interpolationmode  none
attr source  sentPacketToUpperLayer
vector 756  CAIN.ueD2DTx[17].nic.mac  sentPacketToLowerLayer:vector(packetBytes)  ETV
attr interpolationmode  none
attr source  sentPacketToLowerLayer
vector 754  CAIN.ueD2DTx[17].nic.mac  receivedPacketFromLowerLayer:vector(packetBytes)  ETV
attr interpolationmode  none
attr source  receivedPacketFromLowerLayer
vector 755  CAIN.ueD2DTx[17].nic.mac  sentPacketToUpperLayer:vector(packetBytes)  ETV
attr interpolationmode  none
attr source  sentPacketToUpperLayer
vector 403  CAIN.ueD2DTx[6].nic.mac  sentPacketToUpperLayer:vector(packetBytes)  ETV
attr interpolationmode  none
attr source  sentPacketToUpperLayer
vector 499  CAIN.ueD2DTx[9].nic.mac  sentPacketToUpperLayer:vector(packetBytes)  ETV
attr interpolationmode  none
attr source  sentPacketToUpperLayer
8	0	0	0
9	0	0	0
24	0	0	0
25	0	0	0
35	0	0	0
36	0	0	0
43	4071	0.0680001132	52
43	4389	0.0730001132	52
43	4940	0.0810001132	52
43	5558	0.0920001132	52
43	136036	3.0370001132	52
43	137801	3.0680001132	52
43	138109	3.0730001132	52
43	138664	3.0810001132	52
44	4069	0.0680001132	52
44	4387	0.0730001132	52
44	4938	0.0810001132	52
44	5556	0.0920001132	52
44	136034	3.0370001132	52
44	137799	3.0680001132	52
44	138107	3.0730001132	52
44	138662	3.0810001132	52
45	4069	0.0680001132	1
45	4387	0.0730001132	2
45	4938	0.0810001132	3
45	5556	0.0920001132	4
45	136034	3.0370001132	5
45	137799	3.0680001132	6
45	138107	3.0730001132	7
45	138662	3.0810001132	8
56	0	0	0
57	0	0	0
59	4067	0.0680001132	79
59	4385	0.0730001132	79
59	4936	0.0810001132	79
59	5554	0.0920001132	79
59	136032	3.0370001132	79
59	137797	3.0680001132	79
59	138105	3.0730001132	79
59	138660	3.0810001132	79
63	4067	0.0680001132	72
63	4385	0.0730001132	72
63	4936	0.0810001132	72
63	5554	0.0920001132	72
63	136032	3.0370001132	72
63	137797	3.0680001132	72
63	138105	3.0730001132	72
63	138660	3.0810001132	72
64	4073	0.0680001132	72
64	4391	0.0730001132	72
64	4942	0.0810001132	72
64	5560	0.0920001132	72
64	136038	3.0370001132	72
64	137803	3.0680001132	72
64	138111	3.0730001132	72
64	138666	3.0810001132	72
66	4073	0.0680001132	0
66	4391	0.0730001132	0
66	4942	0.0810001132	0
66	5560	0.0920001132	0
66	136038	3.0370001132	0
66	137803	3.0680001132	0
66	138111	3.0730001132	0
66	138666	3.0810001132	0
67	0	0	0
68	0	0	0
68	4074	0.0680001132	1
68	4075	0.0680001764	0
68	4392	0.0730001132	1
68	4393	0.0730001764	0
68	4943	0.0810001132	1
68	4944	0.0810001764	0
68	5561	0.0920001132	1
68	5562	0.0920001764	0
68	136039	3.0370001132	1
68	136040	3.0370001764	0
68	137804	3.0680001132	1
68	137805	3.0680001764	0
68	138112	3.0730001132	1
68	138113	3.0730001764	0
68	138667	3.0810001132	1
68	138668	3.0810001764	0
69	4074	0.0680001132	79
69	4392	0.0730001132	79
69	4943	0.0810001132	79
69	5561	0.0920001132	79
69	136039	3.0370001132	79
69	137804	3.0680001132	79
69	138112	3.0730001132	79
69	138667	3.0810001132	79
73	4074	0.0680001132	72
73	4392	0.0730001132	72
73	4943	0.0810001132	72
73	5561	0.0920001132	72
73	136039	3.0370001132	72
73	137804	3.0680001132	72
73	138112	3.0730001132	72
73	138667	3.0810001132	72
78	0	0	0
79	0	0	0
86	2124	0.037	52
86	2125	0.037	52
86	3970	0.068	52
86	4346	0.073	52
86	4902	0.081	52
86	5474	0.092	52
86	135984	3.037	52
86	137680	3.068	52
86	138050	3.073	52
86	138623	3.081	52
92	2110	0.037	45
92	2111	0.037	45
92	3966	0.068	45
92	4342	0.073	45
92	4898	0.081	45
92	5470	0.092	45
92	135980	3.037	45
92	137676	3.068	45
92	138046	3.073	45
92	138619	3.081	45
93	2110	0.037	44
93	2111	0.037	44
93	3966	0.068	44
93	4342	0.073	44
93	4898	0.081	44
93	5470	0.092	44
93	135980	3.037	44
93	137676	3.068	44
93	138046	3.073	44
93	138619	3.081	44
96	378	0.002	0
96	381	0.002	0
96	384	0.002	0
96	387	0.002	0
96	390	0.002	0
96	393	0.002	0
96	396	0.002	0
96	399	0.002	0
96	402	0.002	0
96	405	0.002	0
96	408	0.002	0
96	411	0.002	0
96	414	0.002	0
96	417	0.002	0
96	420	0.002	0
96	423	0.002	0
96	426	0.002	0
96	429	0.002	0
96	432	0.002	0
96	435	0.002	0
96	739	0.008	0
96	742	0.008	0
96	745	0.008	0
96	748	0.008	0
96	751	0.008	0
96	754	0.008	0
96	757	0.008	0
96	760	0.008	0
96	983	0.014	0
96	986	0.014	0
96	989	0.014	0
96	992	0.014	0
96	995	0.014	0
96	998	0.014	0
96	1001	0.014	0
96	1004	0.014	0
96	1236	0.02	0
96	1239	0.02	0
96	1242	0.02	0
96	1245	0.02	0
96	1248	0.02	0
96	1251	0.02	0
96	1254	0.02	0
96	1257	0.02	0
96	1347	0.023	0
96	1394	0.024	0
96	1516	0.026	0
96	1519	0.026	0
96	1522	0.026	0
96	1525	0.026	0
96	1528	0.026	0
96	1531	0.026	0
96	1534	0.026	0
96	1537	0.026	0
96	1606	0.028	0
96	1611	0.028	0
96	1647	0.029	0
96	1650	0.029	0
96	1702	0.03	0
96	1710	0.03	0
96	1805	0.031	0
96	1837	0.032	0
96	1840	0.032	0
96	1843	0.032	0
96	1846	0.032	0
96	1849	0.032	0
96	1852	0.032	0
96	1855	0.032	0
96	1858	0.032	0
96	1918	0.033	0
96	1923	0.033	0
96	1953	0.034	0
96	1955	0.034	0
96	1957	0.034	0
96	2044	0.036	0
96	2217	0.038	0
96	2220	0.038	0
96	2223	0.038	0
96	2226	0.038	0
96	2229	0.038	0
96	2232	0.038	0
96	2235	0.038	0
96	2238	0.038	0
96	2250	0.038	0
96	2284	0.039	0
96	2350	0.041	0
96	2353	0.041	0
96	2495	0.043	0
96	2522	0.044	0
96	2525	0.044	0
96	2528	0.044	0
96	2531	0.044	0
96	2534	0.044	0
96	2537	0.044	0
96	2540	0.044	0
96	2543	0.044	0
96	2552	0.044	0
96	2618	0.046	0
96	2621	0.046	0
96	2719	0.048	0
96	2811	0.049	0
96	2841	0.05	0
96	2844	0.05	0
96	2847	0.05	0
96	2850	0.05	0
96	2853	0.05	0
96	2856	0.05	0
96	2859	0.05	0
96	2862	0.05	0
96	2871	0.05	0
96	2904	0.051	0
96	2907	0.051	0
96	2979	0.053	0
96	3053	0.054	0
96	3139	0.055	0
96	3142	0.055	0
96	3151	0.055	0
96	3191	0.056	0
96	3194	0.056	0
96	3197	0.056	0
96	3200	0.056	0
96	3203	0.056	0
96	3206	0.056	0
96	3209	0.056	0
96	3212	0.056	0
96	3222	0.056	0
96	3225	0.056	0
96	3481	0.059	0
96	3529	0.06	0
96	3532	0.06	0
96	3597	0.061	0
96	3628	0.062	0
96	3631	0.062	0
96	3642	0.062	0
96	3645	0.062	0
96	3660	0.062	0
96	3663	0.062	0
96	3668	0.062	0
96	3671	0.062	0
96	3772	0.063	0
96	3809	0.064	0
96	3811	0.064	0
96	3840	0.065	0
96	3843	0.065	0
96	3848	0.065	0
96	4007	0.068	0
96	4010	0.068	0
96	4021	0.068	0
96	4024	0.068	0
96	4039	0.068	0
96	4042	0.068	0
96	4047	0.068	0
96	4050	0.068	0
96	4061	0.068	0
96	4064	0.068	0
96	4179	0.069	0
96	4221	0.07	0
96	4226	0.07	0
96	4315	0.072	0
96	4379	0.073	0
96	4382	0.073	0
96	4432	0.074	0
96	4435	0.074	0
96	4446	0.074	0
96	4449	0.074	0
96	4464	0.074	0
96	4467	0.074	0
96	4472	0.074	0
96	4475	0.074	0
96	4577	0.075	0
96	4660	0.077	0
96	4707	0.078	0
96	4709	0.078	0
96	4796	0.08	0
96	4799	0.08	0
96	4810	0.08	0
96	4813	0.08	0
96	4828	0.08	0
96	4831	0.08	0
96	4836	0.08	0
96	4839	0.08	0
96	4845	0.08	0
96	5019	0.083	0
96	5128	0.085	0
96	5136	0.085	0
96	5166	0.086	0
96	5169	0.086	0
96	5180	0.086	0
96	5183	0.086	0
96	5198	0.086	0
96	5201	0.086	0
96	5206	0.086	0
96	5209	0.086	0
96	5335	0.088	0
96	5365	0.089	0
96	5418	0.09	0
96	5505	0.092	0
96	5508	0.092	0
96	5519	0.092	0
96	5522	0.092	0
96	5537	0.092	0
96	5540	0.092	0
96	5545	0.092	0
96	5548	0.092	0
96	5653	0.093	0
96	5715	0.095	0
96	5838	0.098	0
96	5841	0.098	0
96	5852	0.098	0
96	5855	0.098	0
96	5870	0.098	0
96	5873	0.098	0
96	5878	0.098	0
96	5881	0.098	0
96	5887	0.098	0
96	6012	0.1	0
96	6136	0.103	0
96	6165	0.104	0
96	6168	0.104	0
96	6179	0.104	0
96	6182	0.104	0
96	6197	0.104	0
96	6200	0.104	0
96	6205	0.104	0
96	6208	0.104	0
96	6293	0.105	0
96	6397	0.108	0
96	6477	0.11	0
96	6480	0.11	0
96	6491	0.11	0
96	6494	0.11	0
96	6509	0.11	0
96	6512	0.11	0
96	6517	0.11	0
96	6520	0.11	0
96	6526	0.11	0
96	6610	0.113	0
96	6711	0.115	0
96	6740	0.116	0
96	6743	0.116	0
96	6754	0.116	0
96	6757	0.116	0
96	6772	0.116	0
96	6775	0.116	0
96	6780	0.116	0
96	6783	0.116	0
96	6843	0.118	0
96	6924	0.12	0
96	6999	0.122	0
96	7002	0.122	0
96	7013	0.122	0
96	7016	0.122	0
96	7031	0.122	0
96	7034	0.122	0
96	7039	0.122	0
96	7042	0.122	0
96	7076	0.123	0
96	7137	0.125	0
96	7260	0.128	0
96	7263	0.128	0
96	7274	0.128	0
96	7277	0.128	0
96	7292	0.128	0
96	7295	0.128	0
96	7300	0.128	0
96	7303	0.128	0
96	7309	0.128	0
96	7370	0.13	0
96	7494	0.133	0
96	7523	0.134	0
96	7526	0.134	0
96	7537	0.134	0
96	7540	0.134	0
96	7555	0.134	0
96	7558	0.134	0
96	7563	0.134	0
96	7566	0.134	0
96	7603	0.135	0
96	7707	0.138	0
96	7787	0.14	0
96	7790	0.14	0
96	7801	0.14	0
96	7804	0.14	0
96	7819	0.14	0
96	7822	0.14	0
96	7827	0.14	0
96	7830	0.14	0
96	7836	0.14	0
96	7920	0.143	0
96	8021	0.145	0
96	8050	0.146	0
96	8053	0.146	0
96	8064	0.146	0
96	8067	0.146	0
96	8082	0.146	0
96	8085	0.146	0
96	8090	0.146	0
96	8093	0.146	0
96	8153	0.148	0
96	8234	0.15	0
96	8309	0.152	0
96	8312	0.152	0
96	8323	0.152	0
96	8326	0.152	0
96	8341	0.152	0
96	8344	0.152	0
96	8349	0.152	0
96	8352	0.152	0
96	8386	0.153	0
96	8447	0.155	0
96	8570	0.158	0
96	8573	0.158	0
96	8584	0.158	0
96	8587	0.158	0
96	8602	0.158	0
96	8605	0.158	0
96	8610	0.158	0
96	8613	0.158	0
96	8619	0.158	0
96	8680	0.16	0
96	8804	0.163	0
96	8833	0.164	0
96	8836	0.164	0
96	8847	0.164	0
96	8850	0.164	0
96	8865	0.164	0
96	8868	0.164	0
96	8873	0.164	0
96	8876	0.164	0
96	8913	0.165	0
96	9017	0.168	0
96	9097	0.17	0
96	9100	0.17	0
96	9111	0.17	0
96	9114	0.17	0
96	9129	0.17	0
96	9132	0.17	0
96	9137	0.17	0
96	9140	0.17	0
96	9146	0.17	0
96	9230	0.173	0
96	9331	0.175	0
96	9360	0.176	0
96	9363	0.176	0
96	9374	0.176	0
96	9377	0.176	0
96	9392	0.176	0
96	9395	0.176	0
96	9400	0.176	0
96	9403	0.176	0
96	9463	0.178	0
96	9544	0.18	0
96	9619	0.182	0
96	9622	0.182	0
96	9633	0.182	0
96	9636	0.182	0
96	9651	0.182	0
96	9654	0.182	0
96	9659	0.182	0
96	9662	0.182	0
96	9696	0.183	0
96	9757	0.185	0
96	9880	0.188	0
96	9883	0.188	0
96	9894	0.188	0
96	9897	0.188	0
96	9912	0.188	0
96	9915	0.188	0
96	9920	0.188	0
96	9923	0.188	0
96	9929	0.188	0
96	9990	0.19	0
96	10114	0.193	0
96	10143	0.194	0
96	10146	0.194	0
96	10157	0.194	0
96	10160	0.194	0
96	10175	0.194	0
96	10178	0.194	0
96	10183	0.194	0
96	10186	0.194	0
96	10223	0.195	0
96	10327	0.198	0
96	10423	0.2	0
96	10426	0.2	0
96	10437	0.2	0
96	10440	0.2	0
96	10455	0.2	0
96	10458	0.2	0
96	10463	0.2	0
96	10466	0.2	0
96	10472	0.2	0
96	10556	0.203	0
96	10657	0.205	0
96	10686	0.206	0
96	10689	0.206	0
96	10700	0.206	0
96	10703	0.206	0
96	10718	0.206	0
96	10721	0.206	0
96	10726	0.206	0
96	10729	0.206	0
96	11284	0.208	0
96	11365	0.21	0
96	11440	0.212	0
96	11443	0.212	0
96	11454	0.212	0
96	11457	0.212	0
96	11472	0.212	0
96	11475	0.212	0
96	11480	0.212	0
96	11483	0.212	0
96	11517	0.213	0
96	11578	0.215	0
96	11701	0.218	0
96	11704	0.218	0
96	11715	0.218	0
96	11718	0.218	0
96	11733	0.218	0
96	11736	0.218	0
96	11741	0.218	0
96	11744	0.218	0
96	11750	0.218	0
96	11811	0.22	0
96	11935	0.223	0
96	11964	0.224	0
96	11967	0.224	0
96	11978	0.224	0
96	11981	0.224	0
96	11996	0.224	0
96	11999	0.224	0
96	12004	0.224	0
96	12007	0.224	0
96	12044	0.225	0
96	12148	0.228	0
96	12228	0.23	0
96	12231	0.23	0
96	12242	0.23	0
96	12245	0.23	0
96	12260	0.23	0
96	12263	0.23	0
96	12268	0.23	0
96	12271	0.23	0
96	12277	0.23	0
96	12361	0.233	0
96	12462	0.235	0
96	12491	0.236	0
96	12494	0.236	0
96	12505	0.236	0
96	12508	0.236	0
96	12523	0.236	0
96	12526	0.236	0
96	12531	0.236	0
96	12534	0.236	0
96	12594	0.238	0
96	12675	0.24	0
96	12750	0.242	0
96	12753	0.242	0
96	12764	0.242	0
96	12767	0.242	0
96	12782	0.242	0
96	12785	0.242	0
96	12790	0.242	0
96	12793	0.242	0
96	12827	0.243	0
96	12888	0.245	0
96	13011	0.248	0
96	13014	0.248	0
96	13025	0.248	0
96	13028	0.248	0
96	13043	0.248	0
96	13046	0.248	0
96	13051	0.248	0
96	13054	0.248	0
96	13060	0.248	0
96	13121	0.25	0
96	13245	0.253	0
96	13274	0.254	0
96	13277	0.254	0
96	13288	0.254	0
96	13291	0.254	0
96	13306	0.254	0
96	13309	0.254	0
96	13314	0.254	0
96	13317	0.254	0
96	13354	0.255	0
96	13953	0.258	0
96	14033	0.26	0
96	14036	0.26	0
96	14047	0.26	0
96	14050	0.26	0
96	14065	0.26	0
96	14068	0.26	0
96	14073	0.26	0
96	14076	0.26	0
96	14082	0.26	0
96	14166	0.263	0
96	14267	0.265	0
96	14296	0.266	0
96	14299	0.266	0
96	14310	0.266	0
96	14313	0.266	0
96	14328	0.266	0
96	14331	0.266	0
96	14336	0.266	0
96	14339	0.266	0
96	14399	0.268	0
96	14480	0.27	0
96	14555	0.272	0
96	14558	0.272	0
96	14569	0.272	0
96	14572	0.272	0
96	14587	0.272	0
96	14590	0.272	0
96	14595	0.272	0
96	14598	0.272	0
96	14632	0.273	0
96	14693	0.275	0
96	14816	0.278	0
96	14819	0.278	0
96	14830	0.278	0
96	14833	0.278	0
96	14848	0.278	0
96	14851	0.278	0
96	14856	0.278	0
96	14859	0.278	0
96	14865	0.278	0
96	14926	0.28	0
96	15050	0.283	0
96	15079	0.284	0
96	15082	0.284	0
96	15093	0.284	0
96	15096	0.284	0
96	15111	0.284	0
96	15114	0.284	0
96	15119	0.284	0
96	15122	0.284	0
96	15159	0.285	0
96	15263	0.288	0
96	15343	0.29	0
96	15346	0.29	0
96	15357	0.29	0
96	15360	0.29	0
96	15375	0.29	0
96	15378	0.29	0
96	15383	0.29	0
96	15386	0.29	0
96	15392	0.29	0
96	15476	0.293	0
96	15577	0.295	0
96	15606	0.296	0
96	15609	0.296	0
96	15620	0.296	0
96	15623	0.296	0
96	15638	0.296	0
96	15641	0.296	0
96	15646	0.296	0
96	15649	0.296	0
96	15709	0.298	0
96	15806	0.3	0
96	15881	0.302	0
96	15884	0.302	0
96	15895	0.302	0
96	15898	0.302	0
96	15913	0.302	0
96	15916	0.302	0
96	15921	0.302	0
96	15924	0.302	0
96	15958	0.303	0
96	16019	0.305	0
96	16142	0.308	0
96	16145	0.308	0
96	16156	0.308	0
96	16159	0.308	0
96	16174	0.308	0
96	16177	0.308	0
96	16182	0.308	0
96	16185	0.308	0
96	16191	0.308	0
96	16252	0.31	0
96	16376	0.313	0
96	16405	0.314	0
96	16408	0.314	0
96	16419	0.314	0
96	16422	0.314	0
96	16437	0.314	0
96	16440	0.314	0
96	16445	0.314	0
96	16448	0.314	0
96	16485	0.315	0
96	16589	0.318	0
96	16669	0.32	0
96	16672	0.32	0
96	16683	0.32	0
96	16686	0.32	0
96	16701	0.32	0
96	16704	0.32	0
96	16709	0.32	0
96	16712	0.32	0
96	16718	0.32	0
96	16802	0.323	0
96	16903	0.325	0
96	16932	0.326	0
96	16935	0.326	0
96	16946	0.326	0
96	16949	0.326	0
96	16964	0.326	0
96	16967	0.326	0
96	16972	0.326	0
96	16975	0.326	0
96	17035	0.328	0
96	17116	0.33	0
96	17191	0.332	0
96	17194	0.332	0
96	17205	0.332	0
96	17208	0.332	0
96	17223	0.332	0
96	17226	0.332	0
96	17231	0.332	0
96	17234	0.332	0
96	17268	0.333	0
96	17329	0.335	0
96	17452	0.338	0
96	17455	0.338	0
96	17466	0.338	0
96	17469	0.338	0
96	17484	0.338	0
96	17487	0.338	0
96	17492	0.338	0
96	17495	0.338	0
96	17501	0.338	0
96	17562	0.34	0
96	17686	0.343	0
96	17715	0.344	0
96	17718	0.344	0
96	17729	0.344	0
96	17732	0.344	0
96	17747	0.344	0
96	17750	0.344	0
96	17755	0.344	0
96	17758	0.344	0
96	17795	0.345	0
96	17899	0.348	0
96	17979	0.35	0
96	17982	0.35	0
96	17993	0.35	0
96	17996	0.35	0
96	18011	0.35	0
96	18014	0.35	0
96	18019	0.35	0
96	18022	0.35	0
96	18028	0.35	0
96	18112	0.353	0
96	18213	0.355	0
96	18242	0.356	0
96	18245	0.356	0
96	18256	0.356	0
96	18259	0.356	0
96	18274	0.356	0
96	18277	0.356	0
96	18282	0.356	0
96	18285	0.356	0
96	18345	0.358	0
96	18426	0.36	0
96	18501	0.362	0
96	18504	0.362	0
96	18515	0.362	0
96	18518	0.362	0
96	18533	0.362	0
96	18536	0.362	0
96	18541	0.362	0
96	18544	0.362	0
96	18578	0.363	0
96	18639	0.365	0
96	18762	0.368	0
96	18765	0.368	0
96	18776	0.368	0
96	18779	0.368	0
96	18794	0.368	0
96	18797	0.368	0
96	18802	0.368	0
96	18805	0.368	0
96	18811	0.368	0
96	18872	0.37	0
96	18996	0.373	0
96	19025	0.374	0
96	19028	0.374	0
96	19039	0.374	0
96	19042	0.374	0
96	19057	0.374	0
96	19060	0.374	0
96	19065	0.374	0
96	19068	0.374	0
96	19105	0.375	0
96	19209	0.378	0
96	19289	0.38	0
96	19292	0.38	0
96	19303	0.38	0
96	19306	0.38	0
96	19321	0.38	0
96	19324	0.38	0
96	19329	0.38	0
96	19332	0.38	0
96	19338	0.38	0
96	19422	0.383	0
96	19523	0.385	0
96	19552	0.386	0
96	19555	0.386	0
96	19566	0.386	0
96	19569	0.386	0
96	19584	0.386	0
96	19587	0.386	0
96	19592	0.386	0
96	19595	0.386	0
96	19655	0.388	0
96	19736	0.39	0
96	19811	0.392	0
96	19814	0.392	0
96	19825	0.392	0
96	19828	0.392	0
96	19843	0.392	0
96	19846	0.392	0
96	19851	0.392	0
96	19854	0.392	0
96	19888	0.393	0
96	19949	0.395	0
96	20072	0.398	0
96	20075	0.398	0
96	20086	0.398	0
96	20089	0.398	0
96	20104	0.398	0
96	20107	0.398	0
96	20112	0.398	0
96	20115	0.398	0
96	20121	0.398	0
96	20198	0.4	0
96	20322	0.403	0
96	20351	0.404	0
96	20354	0.404	0
96	20365	0.404	0
96	20368	0.404	0
96	20383	0.404	0
96	20386	0.404	0
96	20391	0.404	0
96	20394	0.404	0
96	20431	0.405	0
96	20543	0.408	0
96	20623	0.41	0
96	20626	0.41	0
96	20637	0.41	0
96	20640	0.41	0
96	20655	0.41	0
96	20658	0.41	0
96	20663	0.41	0
96	20666	0.41	0
96	20672	0.41	0
96	20756	0.413	0
96	20857	0.415	0
96	20886	0.416	0
96	20889	0.416	0
96	20900	0.416	0
96	20903	0.416	0
96	20918	0.416	0
96	20921	0.416	0
96	20926	0.416	0
96	20929	0.416	0
96	20989	0.418	0
96	21070	0.42	0
96	21145	0.422	0
96	21148	0.422	0
96	21159	0.422	0
96	21162	0.422	0
96	21177	0.422	0
96	21180	0.422	0
96	21185	0.422	0
96	21188	0.422	0
96	21222	0.423	0
96	21283	0.425	0
96	21406	0.428	0
96	21409	0.428	0
96	21420	0.428	0
96	21423	0.428	0
96	21438	0.428	0
96	21441	0.428	0
96	21446	0.428	0
96	21449	0.428	0
96	21455	0.428	0
96	21516	0.43	0
96	21640	0.433	0
96	21669	0.434	0
96	21672	0.434	0
96	21683	0.434	0
96	21686	0.434	0
96	21701	0.434	0
96	21704	0.434	0
96	21709	0.434	0
96	21712	0.434	0
96	21749	0.435	0
96	21853	0.438	0
96	21933	0.44	0
96	21936	0.44	0
96	21947	0.44	0
96	21950	0.44	0
96	21965	0.44	0
96	21968	0.44	0
96	21973	0.44	0
96	21976	0.44	0
96	21982	0.44	0
96	22066	0.443	0
96	22167	0.445	0
96	22196	0.446	0
96	22199	0.446	0
96	22210	0.446	0
96	22213	0.446	0
96	22228	0.446	0
96	22231	0.446	0
96	22236	0.446	0
96	22239	0.446	0
96	22299	0.448	0
96	22380	0.45	0
96	22455	0.452	0
96	22458	0.452	0
96	22469	0.452	0
96	22472	0.452	0
96	22487	0.452	0
96	22490	0.452	0
96	22495	0.452	0
96	22498	0.452	0
96	22532	0.453	0
96	22593	0.455	0
96	22724	0.458	0
96	22727	0.458	0
96	22738	0.458	0
96	22741	0.458	0
96	22756	0.458	0
96	22759	0.458	0
96	22764	0.458	0
96	22767	0.458	0
96	22773	0.458	0
96	22834	0.46	0
96	22958	0.463	0
96	22987	0.464	0
96	22990	0.464	0
96	23001	0.464	0
96	23004	0.464	0
96	23019	0.464	0
96	23022	0.464	0
96	23027	0.464	0
96	23030	0.464	0
96	23067	0.465	0
96	23171	0.468	0
96	23251	0.47	0
96	23254	0.47	0
96	23265	0.47	0
96	23268	0.47	0
96	23283	0.47	0
96	23286	0.47	0
96	23291	0.47	0
96	23294	0.47	0
96	23300	0.47	0
96	23384	0.473	0
96	23485	0.475	0
96	23514	0.476	0
96	23517	0.476	0
96	23528	0.476	0
96	23531	0.476	0
96	23546	0.476	0
96	23549	0.476	0
96	23554	0.476	0
96	23557	0.476	0
96	23617	0.478	0
96	23698	0.48	0
96	23773	0.482	0
96	23776	0.482	0
96	23787	0.482	0
96	23790	0.482	0
96	23805	0.482	0
96	23808	0.482	0
96	23813	0.482	0
96	23816	0.482	0
96	23850	0.483	0
96	23911	0.485	0
96	24034	0.488	0
96	24037	0.488	0
96	24048	0.488	0
96	24051	0.488	0
96	24066	0.488	0
96	24069	0.488	0
96	24074	0.488	0
96	24077	0.488	0
96	24083	0.488	0
96	24144	0.49	0
96	24268	0.493	0
96	24297	0.494	0
96	24300	0.494	0
96	24311	0.494	0
96	24314	0.494	0
96	24329	0.494	0
96	24332	0.494	0
96	24337	0.494	0
96	24340	0.494	0
96	24377	0.495	0
96	24481	0.498	0
96	24577	0.5	0
96	24580	0.5	0
96	24591	0.5	0
96	24594	0.5	0
96	24609	0.5	0
96	24612	0.5	0
96	24617	0.5	0
96	24620	0.5	0
96	24626	0.5	0
96	24710	0.503	0
96	24811	0.505	0
96	24840	0.506	0
96	24843	0.506	0
96	24854	0.506	0
96	24857	0.506	0
96	24872	0.506	0
96	24875	0.506	0
96	24880	0.506	0
96	24883	0.506	0
96	24943	0.508	0
96	25024	0.51	0
96	25099	0.512	0
96	25102	0.512	0
96	25113	0.512	0
96	25116	0.512	0
96	25131	0.512	0
96	25134	0.512	0
96	25139	0.512	0
96	25142	0.512	0
96	25176	0.513	0
96	25237	0.515	0
96	25360	0.518	0
96	25363	0.518	0
96	25374	0.518	0
96	25377	0.518	0
96	25392	0.518	0
96	25395	0.518	0
96	25400	0.518	0
96	25403	0.518	0
96	25409	0.518	0
96	25470	0.52	0
96	25594	0.523	0
96	25623	0.524	0
96	25626	0.524	0
96	25637	0.524	0
96	25640	0.524	0
96	25655	0.524	0
96	25658	0.524	0
96	25663	0.524	0
96	25666	0.524	0
96	25703	0.525	0
96	25807	0.528	0
96	25887	0.53	0
96	25890	0.53	0
96	25901	0.53	0
96	25904	0.53	0
96	25919	0.53	0
96	25922	0.53	0
96	25927	0.53	0
96	25930	0.53	0
96	25936	0.53	0
96	26020	0.533	0
96	26121	0.535	0
96	26150	0.536	0
96	26153	0.536	0
96	26164	0.536	0
96	26167	0.536	0
96	26182	0.536	0
96	26185	0.536	0
96	26190	0.536	0
96	26193	0.536	0
96	26253	0.538	0
96	26334	0.54	0
96	26409	0.542	0
96	26412	0.542	0
96	26423	0.542	0
96	26426	0.542	0
96	26441	0.542	0
96	26444	0.542	0
96	26449	0.542	0
96	26452	0.542	0
96	26486	0.543	0
96	26547	0.545	0
96	26670	0.548	0
96	26673	0.548	0
96	26684	0.548	0
96	26687	0.548	0
96	26702	0.548	0
96	26705	0.548	0
96	26710	0.548	0
96	26713	0.548	0
96	26719	0.548	0
96	26780	0.55	0
96	26904	0.553	0
96	26933	0.554	0
96	26936	0.554	0
96	26947	0.554	0
96	26950	0.554	0
96	26965	0.554	0
96	26968	0.554	0
96	26973	0.554	0
96	26976	0.554	0
96	27013	0.555	0
96	27117	0.558	0
96	27197	0.56	0
96	27200	0.56	0
96	27211	0.56	0
96	27214	0.56	0
96	27229	0.56	0
96	27232	0.56	0
96	27237	0.56	0
96	27240	0.56	0
96	27246	0.56	0
96	27330	0.563	0
96	27431	0.565	0
96	27460	0.566	0
96	27463	0.566	0
96	27474	0.566	0
96	27477	0.566	0
96	27492	0.566	0
96	27495	0.566	0
96	27500	0.566	0
96	27503	0.566	0
96	27563	0.568	0
96	27644	0.57	0
96	27719	0.572	0
96	27722	0.572	0
96	27733	0.572	0
96	27736	0.572	0
96	27751	0.572	0
96	27754	0.572	0
96	27759	0.572	0
96	27762	0.572	0
96	27796	0.573	0
96	27857	0.575	0
96	27980	0.578	0
96	27983	0.578	0
96	27994	0.578	0
96	27997	0.578	0
96	28012	0.578	0
96	28015	0.578	0
96	28020	0.578	0
96	28023	0.578	0
96	28029	0.578	0
96	28090	0.58	0
96	28214	0.583	0
96	28243	0.584	0
96	28246	0.584	0
96	28257	0.584	0
96	28260	0.584	0
96	28275	0.584	0
96	28278	0.584	0
96	28283	0.584	0
96	28286	0.584	0
96	28323	0.585	0
96	28427	0.588	0
96	28507	0.59	0
96	28510	0.59	0
96	28521	0.59	0
96	28524	0.59	0
96	28539	0.59	0
96	28542	0.59	0
96	28547	0.59	0
96	28550	0.59	0
96	28556	0.59	0
96	28640	0.593	0
96	28741	0.595	0
96	28770	0.596	0
96	28773	0.596	0
96	28784	0.596	0
96	28787	0.596	0
96	28802	0.596	0
96	28805	0.596	0
96	28810	0.596	0
96	28813	0.596	0
96	28873	0.598	0
96	28970	0.6	0
96	29045	0.602	0
96	29048	0.602	0
96	29059	0.602	0
96	29062	0.602	0
96	29077	0.602	0
96	29080	0.602	0
96	29085	0.602	0
96	29088	0.602	0
96	29122	0.603	0
96	29183	0.605	0
96	29306	0.608	0
96	29309	0.608	0
96	29320	0.608	0
96	29323	0.608	0
96	29338	0.608	0
96	29341	0.608	0
96	29346	0.608	0
96	29349	0.608	0
96	29355	0.608	0
96	29416	0.61	0
96	29540	0.613	0
96	29569	0.614	0
96	29572	0.614	0
96	29583	0.614	0
96	29586	0.614	0
96	29601	0.614	0
96	29604	0.614	0
96	29609	0.614	0
96	29612	0.614	0
96	29649	0.615	0
96	29753	0.618	0
96	29833	0.62	0
96	29836	0.62	0
96	29847	0.62	0
96	29850	0.62	0
96	29865	0.62	0
96	29868	0.62	0
96	29873	0.62	0
96	29876	0.62	0
96	29882	0.62	0
96	29966	0.623	0
96	30067	0.625	0
96	30096	0.626	0
96	30099	0.626	0
96	30110	0.626	0
96	30113	0.626	0
96	30128	0.626	0
96	30131	0.626	0
96	30136	0.626	0
96	30139	0.626	0
96	30199	0.628	0
96	30280	0.63	0
96	30355	0.632	0
96	30358	0.632	0
96	30369	0.632	0
96	30372	0.632	0
96	30387	0.632	0
96	30390	0.632	0
96	30395	0.632	0
96	30398	0.632	0
96	30432	0.633	0
96	30493	0.635	0
96	30616	0.638	0
96	30619	0.638	0
96	30630	0.638	0
96	30633	0.638	0
96	30648	0.638	0
96	30651	0.638	0
96	30656	0.638	0
96	30659	0.638	0
96	30665	0.638	0
96	30726	0.64	0
96	30850	0.643	0
96	30879	0.644	0
96	30882	0.644	0
96	30893	0.644	0
96	30896	0.644	0
96	30911	0.644	0
96	30914	0.644	0
96	30919	0.644	0
96	30922	0.644	0
96	30959	0.645	0
96	31063	0.648	0
96	31143	0.65	0
96	31146	0.65	0
96	31157	0.65	0
96	31160	0.65	0
96	31175	0.65	0
96	31178	0.65	0
96	31183	0.65	0
96	31186	0.65	0
96	31192	0.65	0
96	31276	0.653	0
96	31377	0.655	0
96	31406	0.656	0
96	31409	0.656	0
96	31420	0.656	0
96	31423	0.656	0
96	31438	0.656	0
96	31441	0.656	0
96	31446	0.656	0
96	31449	0.656	0
96	31509	0.658	0
96	31590	0.66	0
96	31665	0.662	0
96	31668	0.662	0
96	31679	0.662	0
96	31682	0.662	0
96	31697	0.662	0
96	31700	0.662	0
96	31705	0.662	0
96	31708	0.662	0
96	31742	0.663	0
96	31803	0.665	0
96	31926	0.668	0
96	31929	0.668	0
96	31940	0.668	0
96	31943	0.668	0
96	31958	0.668	0
96	31961	0.668	0
96	31966	0.668	0
96	31969	0.668	0
96	31975	0.668	0
96	32036	0.67	0
96	32160	0.673	0
96	32189	0.674	0
96	32192	0.674	0
96	32203	0.674	0
96	32206	0.674	0
96	32221	0.674	0
96	32224	0.674	0
96	32229	0.674	0
96	32232	0.674	0
96	32269	0.675	0
96	32373	0.678	0
96	32453	0.68	0
96	32456	0.68	0
96	32467	0.68	0
96	32470	0.68	0
96	32485	0.68	0
96	32488	0.68	0
96	32493	0.68	0
96	32496	0.68	0
96	32502	0.68	0
96	32586	0.683	0
96	32687	0.685	0
96	32716	0.686	0
96	32719	0.686	0
96	32730	0.686	0
96	32733	0.686	0
96	32748	0.686	0
96	32751	0.686	0
96	32756	0.686	0
96	32759	0.686	0
96	32819	0.688	0
96	32900	0.69	0
96	32975	0.692	0
96	32978	0.692	0
96	32989	0.692	0
96	32992	0.692	0
96	33007	0.692	0
96	33010	0.692	0
96	33015	0.692	0
96	33018	0.692	0
96	33052	0.693	0
96	33113	0.695	0
96	33236	0.698	0
96	33239	0.698	0
96	33250	0.698	0
96	33253	0.698	0
96	33268	0.698	0
96	33271	0.698	0
96	33276	0.698	0
96	33279	0.698	0
96	33285	0.698	0
96	33362	0.7	0
96	33486	0.703	0
96	33515	0.704	0
96	33518	0.704	0
96	33529	0.704	0
96	33532	0.704	0
96	33547	0.704	0
96	33550	0.704	0
96	33555	0.704	0
96	33558	0.704	0
96	33595	0.705	0
96	33699	0.708	0
96	33779	0.71	0
96	33782	0.71	0
96	33793	0.71	0
96	33796	0.71	0
96	33811	0.71	0
96	33814	0.71	0
96	33819	0.71	0
96	33822	0.71	0
96	33828	0.71	0
96	33912	0.713	0
96	34013	0.715	0
96	34042	0.716	0
96	34045	0.716	0
96	34056	0.716	0
96	34059	0.716	0
96	34074	0.716	0
96	34077	0.716	0
96	34082	0.716	0
96	34085	0.716	0
96	34145	0.718	0
96	34226	0.72	0
96	34301	0.722	0
96	34304	0.722	0
96	34315	0.722	0
96	34318	0.722	0
96	34333	0.722	0
96	34336	0.722	0
96	34341	0.722	0
96	34344	0.722	0
96	34378	0.723	0
96	34439	0.725	0
96	34562	0.728	0
96	34565	0.728	0
96	34576	0.728	0
96	34579	0.728	0
96	34594	0.728	0
96	34597	0.728	0
96	34602	0.728	0
96	34605	0.728	0
96	34611	0.728	0
96	34672	0.73	0
96	34796	0.733	0
96	34825	0.734	0
96	34828	0.734	0
96	34839	0.734	0
96	34842	0.734	0
96	34857	0.734	0
[...]
1175	10767	0.2070005424	84
1175	10767	0.2070005424	86
1175	10767	0.2070005424	88
1175	10767	0.2070005424	90
1175	10767	0.2070005424	92
1175	10767	0.2070005424	94
1175	10767	0.2070005424	96
1175	10767	0.2070005424	98
1175	10767	0.2070005424	100
1175	10767	0.2070005424	102
1175	10767	0.2070005424	104
1175	10767	0.2070005424	106
1175	10767	0.2070005424	108
1175	10767	0.2070005424	110
1175	10767	0.2070005424	112
1175	10767	0.2070005424	114
1175	10767	0.2070005424	116
1175	10767	0.2070005424	118
1175	10767	0.2070005424	120
1175	10767	0.2070005424	122
1175	10767	0.2070005424	124
1175	10767	0.2070005424	126
1175	10767	0.2070005424	128
1175	10767	0.2070005424	130
1175	10767	0.2070005424	132
1175	10767	0.2070005424	134
1175	10767	0.2070005424	136
1175	10767	0.2070005424	138
1175	10767	0.2070005424	140
1175	10767	0.2070005424	142
1175	10767	0.2070005424	144
1175	10767	0.2070005424	146
1175	10767	0.2070005424	148
1175	10767	0.2070005424	150
1175	10767	0.2070005424	152
1175	10767	0.2070005424	154
1175	10767	0.2070005424	156
1175	10767	0.2070005424	158
1175	10767	0.2070005424	160
1175	10767	0.2070005424	162
1175	10767	0.2070005424	164
1175	10767	0.2070005424	166
1175	10767	0.2070005424	168
1175	10767	0.2070005424	170
1175	10767	0.2070005424	172
1175	10767	0.2070005424	174
1175	10767	0.2070005424	176
1175	10767	0.2070005424	178
1175	10767	0.2070005424	180
1175	10767	0.2070005424	182
1175	10767	0.2070005424	184
1175	10767	0.2070005424	186
1175	10767	0.2070005424	188
1175	10767	0.2070005424	190
1175	10767	0.2070005424	192
1175	20493	0.4070022536	190
1175	20493	0.4070022536	188
1175	20493	0.4070022536	186
1175	20493	0.4070022536	184
1175	20493	0.4070022536	182
1175	20493	0.4070022536	180
1175	20493	0.4070022536	178
1175	20493	0.4070022536	176
1175	20493	0.4070022536	174
1175	20493	0.4070022536	172
1175	20493	0.4070022536	170
1175	20493	0.4070022536	168
1175	20493	0.4070022536	166
1175	20493	0.4070022536	164
1175	20493	0.4070022536	162
1175	20493	0.4070022536	160
1175	20493	0.4070022536	158
1175	20493	0.4070022536	156
1175	20493	0.4070022536	154
1175	20493	0.4070022536	152
1175	20493	0.4070022536	150
1175	20493	0.4070022536	148
1175	20493	0.4070022536	146
1175	20493	0.4070022536	144
1175	20493	0.4070022536	142
1175	20493	0.4070022536	140
1175	20493	0.4070022536	138
1175	20493	0.4070022536	136
1175	20493	0.4070022536	134
1175	20493	0.4070022536	132
1175	20493	0.4070022536	130
1175	20493	0.4070022536	128
1175	20493	0.4070022536	126
1175	20493	0.4070022536	124
1175	20493	0.4070022536	122
1175	20493	0.4070022536	120
1175	20493	0.4070022536	118
1175	20493	0.4070022536	116
1175	20493	0.4070022536	114
1175	20493	0.4070022536	112
1175	20493	0.4070022536	110
1175	20493	0.4070022536	108
1175	20493	0.4070022536	106
1175	20493	0.4070022536	104
1175	20493	0.4070022536	102
1175	20493	0.4070022536	100
1175	20493	0.4070022536	98
1175	20493	0.4070022536	96
1175	20493	0.4070022536	94
1175	20493	0.4070022536	92
1175	20493	0.4070022536	90
1175	20493	0.4070022536	88
1175	20493	0.4070022536	86
1175	20493	0.4070022536	84
1175	20493	0.4070022536	82
1175	20493	0.4070022536	80
1175	20493	0.4070022536	78
1175	20493	0.4070022536	76
1175	20493	0.4070022536	74
1175	20493	0.4070022536	72
1175	20493	0.4070022536	70
1175	20493	0.4070022536	68
1175	20493	0.4070022536	66
1175	20493	0.4070022536	64
1175	20493	0.4070022536	62
1175	20493	0.4070022536	60
1175	20493	0.4070022536	58
1175	20493	0.4070022536	56
1175	20493	0.4070022536	54
1175	20493	0.4070022536	52
1175	20493	0.4070022536	50
1175	20493	0.4070022536	48
1175	20493	0.4070022536	46
1175	20493	0.4070022536	44
1175	20493	0.4070022536	42
1175	20493	0.4070022536	40
1175	20493	0.4070022536	38
1175	20493	0.4070022536	36
1175	20493	0.4070022536	34
1175	20493	0.4070022536	32
1175	20493	0.4070022536	30
1175	20493	0.4070022536	28
1175	20493	0.4070022536	26
1175	20493	0.4070022536	24
1175	20493	0.4070022536	22
1175	20493	0.4070022536	20
1175	20493	0.4070022536	18
1175	20493	0.4070022536	16
1175	20493	0.4070022536	14
1175	20493	0.4070022536	12
1175	20493	0.4070022536	10
1175	20493	0.4070022536	8
1175	20493	0.4070022536	6
1175	20493	0.4070022536	4
1175	20493	0.4070022536	2
1175	20493	0.4070022536	0
1178	651	0.0070001912	0
1178	10767	0.2070005424	0
1178	20493	0.4070022536	0
1179	651	0.0070001912	0
1179	10767	0.2070005424	0
1179	20493	0.4070022536	0
1180	651	0.0070001912	0
1180	10767	0.2070005424	0
1180	20493	0.4070022536	0
1181	651	0.0070001912	0
1181	10767	0.2070005424	0
1181	20493	0.4070022536	0
1182	150	0.0000001228	0
1185	651	0.0070001912	2000
1185	10767	0.2070005424	2011
1185	20493	0.4070022536	2107
1187	651	0.0070001912	0
1187	10767	0.2070005424	0
1187	20493	0.4070022536	0
1188	651	0.0070001912	0
1188	10767	0.2070005424	0
1188	20493	0.4070022536	0
1190	235	0.0000006304	3
1192	235	0.0000006304	65535
1193	235	0.0000006304	8940
1194	235	0.0000006304	0.3725
1197	235	0.0000006304	1
1209	163	0.0000003096	0
1217	235	0.0000006304	3
1219	235	0.0000006304	65535
1220	235	0.0000006304	8940
1221	235	0.0000006304	0.3725
1224	235	0.0000006304	1
1236	163	0.0000003096	0
1244	236	0.0000006304	3
1246	236	0.0000006304	65535
1247	236	0.0000006304	8940
1248	236	0.0000006304	0.3725
1251	236	0.0000006304	1
1263	164	0.0000003096	0
1271	236	0.0000006304	3
1273	236	0.0000006304	65535
1274	236	0.0000006304	8940
1275	236	0.0000006304	0.3725
1278	236	0.0000006304	1
1290	164	0.0000003096	0
1300	3342	0.0570001912	0
1300	13416	0.2570005424	0
1300	22695	0.4570022536	0
1301	3269	0.057	1
1301	3269	0.057	0
1301	3272	0.057	1
1301	3273	0.057	2
1301	3274	0.057	3
1301	3275	0.057	4
1301	3276	0.057	5
1301	3277	0.057	6
1301	3278	0.057	7
1301	3279	0.057	8
1301	3280	0.057	9
1301	3281	0.057	10
1301	3282	0.057	11
1301	3342	0.0570001912	10
1301	3342	0.0570001912	9
1301	3342	0.0570001912	8
1301	3342	0.0570001912	7
1301	3342	0.0570001912	6
1301	3342	0.0570001912	5
1301	3342	0.0570001912	4
1301	3342	0.0570001912	3
1301	3342	0.0570001912	2
1301	3342	0.0570001912	1
1301	3342	0.0570001912	0
1301	3718	0.063	1
1301	3719	0.063	2
1301	3720	0.063	3
1301	3721	0.063	4
1301	3722	0.063	5
1301	3723	0.063	6
1301	3724	0.063	7
1301	3725	0.063	8
1301	3726	0.063	9
1301	3727	0.063	10
1301	3728	0.063	11
1301	3729	0.063	12
1301	4129	0.069	13
1301	4130	0.069	14
1301	4131	0.069	15
1301	4132	0.069	16
1301	4133	0.069	17
1301	4134	0.069	18
1301	4135	0.069	19
1301	4136	0.069	20
1301	4137	0.069	21
1301	4138	0.069	22
1301	4139	0.069	23
1301	4140	0.069	24
1301	4531	0.075	25
1301	4532	0.075	26
1301	4533	0.075	27
1301	4534	0.075	28
1301	4535	0.075	29
1301	4536	0.075	30
1301	4537	0.075	31
1301	4538	0.075	32
1301	4539	0.075	33
1301	4540	0.075	34
1301	4541	0.075	35
1301	4542	0.075	36
1301	4882	0.081	37
1301	4883	0.081	38
1301	4884	0.081	39
1301	4885	0.081	40
1301	4886	0.081	41
1301	4887	0.081	42
1301	4888	0.081	43
1301	4889	0.081	44
1301	4890	0.081	45
1301	4891	0.081	46
1301	4892	0.081	47
1301	4893	0.081	48
1301	5258	0.087	49
1301	5259	0.087	50
1301	5260	0.087	51
1301	5261	0.087	52
1301	5262	0.087	53
1301	5263	0.087	54
1301	5264	0.087	55
1301	5265	0.087	56
1301	5266	0.087	57
1301	5267	0.087	58
1301	5268	0.087	59
1301	5269	0.087	60
1301	5608	0.093	61
1301	5609	0.093	62
1301	5610	0.093	63
1301	5611	0.093	64
1301	5612	0.093	65
1301	5613	0.093	66
1301	5614	0.093	67
1301	5615	0.093	68
1301	5616	0.093	69
1301	5617	0.093	70
1301	5618	0.093	71
1301	5619	0.093	72
1301	5925	0.099	73
1301	5926	0.099	74
1301	5927	0.099	75
1301	5928	0.099	76
1301	5929	0.099	77
1301	5930	0.099	78
1301	5931	0.099	79
1301	5932	0.099	80
1301	5933	0.099	81
1301	5934	0.099	82
1301	5935	0.099	83
1301	5936	0.099	84
1301	6253	0.105	85
1301	6254	0.105	86
1301	6255	0.105	87
1301	6256	0.105	88
1301	6257	0.105	89
1301	6258	0.105	90
1301	6259	0.105	91
1301	6260	0.105	92
1301	6261	0.105	93
1301	6262	0.105	94
1301	6263	0.105	95
1301	6264	0.105	96
1301	13416	0.2570005424	95
1301	13416	0.2570005424	94
1301	13416	0.2570005424	93
1301	13416	0.2570005424	92
1301	13416	0.2570005424	91
1301	13416	0.2570005424	90
1301	13416	0.2570005424	89
1301	13416	0.2570005424	88
1301	13416	0.2570005424	87
1301	13416	0.2570005424	86
1301	13416	0.2570005424	85
1301	13416	0.2570005424	84
1301	13416	0.2570005424	83
1301	13416	0.2570005424	82
1301	13416	0.2570005424	81
1301	13416	0.2570005424	80
1301	13416	0.2570005424	79
1301	13416	0.2570005424	78
1301	13416	0.2570005424	77
1301	13416	0.2570005424	76
1301	13416	0.2570005424	75
1301	13416	0.2570005424	74
1301	13416	0.2570005424	73
1301	13416	0.2570005424	72
1301	13416	0.2570005424	71
1301	13416	0.2570005424	70
1301	13416	0.2570005424	69
1301	13416	0.2570005424	68
1301	13416	0.2570005424	67
1301	13416	0.2570005424	66
1301	13416	0.2570005424	65
1301	13416	0.2570005424	64
1301	13416	0.2570005424	63
1301	13416	0.2570005424	62
1301	13416	0.2570005424	61
1301	13416	0.2570005424	60
1301	13416	0.2570005424	59
1301	13416	0.2570005424	58
1301	13416	0.2570005424	57
1301	13416	0.2570005424	56
1301	13416	0.2570005424	55
1301	13416	0.2570005424	54
1301	13416	0.2570005424	53
1301	13416	0.2570005424	52
1301	13416	0.2570005424	51
1301	13416	0.2570005424	50
1301	13416	0.2570005424	49
1301	13416	0.2570005424	48
1301	13416	0.2570005424	47
1301	13416	0.2570005424	46
1301	13416	0.2570005424	45
1301	13416	0.2570005424	44
1301	13416	0.2570005424	43
1301	13416	0.2570005424	42
1301	13416	0.2570005424	41
1301	13416	0.2570005424	40
1301	13416	0.2570005424	39
1301	13416	0.2570005424	38
1301	13416	0.2570005424	37
1301	13416	0.2570005424	36
1301	13416	0.2570005424	35
1301	13416	0.2570005424	34
1301	13416	0.2570005424	33
1301	13416	0.2570005424	32
1301	13416	0.2570005424	31
1301	13416	0.2570005424	30
1301	13416	0.2570005424	29
1301	13416	0.2570005424	28
1301	13416	0.2570005424	27
1301	13416	0.2570005424	26
1301	13416	0.2570005424	25
1301	13416	0.2570005424	24
1301	13416	0.2570005424	23
1301	13416	0.2570005424	22
1301	13416	0.2570005424	21
1301	13416	0.2570005424	20
1301	13416	0.2570005424	19
1301	13416	0.2570005424	18
1301	13416	0.2570005424	17
1301	13416	0.2570005424	16
1301	13416	0.2570005424	15
1301	13416	0.2570005424	14
1301	13416	0.2570005424	13
1301	13416	0.2570005424	12
1301	13416	0.2570005424	11
1301	13416	0.2570005424	10
1301	13416	0.2570005424	9
1301	13416	0.2570005424	8
1301	13416	0.2570005424	7
1301	13416	0.2570005424	6
1301	13416	0.2570005424	5
1301	13416	0.2570005424	4
1301	13416	0.2570005424	3
1301	13416	0.2570005424	2
1301	13416	0.2570005424	1
1301	13416	0.2570005424	0
1304	651	0.0070001912	0
1304	10767	0.2070005424	0
1304	20493	0.4070022536	0
1305	597	0.007	1
1305	597	0.007	0
1305	598	0.007	1
1305	599	0.007	2
1305	600	0.007	3
1305	601	0.007	4
1305	602	0.007	5
1305	603	0.007	6
1305	604	0.007	7
1305	605	0.007	8
1305	606	0.007	9
1305	607	0.007	10
1305	608	0.007	11
1305	651	0.0070001912	10
1305	651	0.0070001912	9
1305	651	0.0070001912	8
1305	651	0.0070001912	7
1305	651	0.0070001912	6
1305	651	0.0070001912	5
1305	651	0.0070001912	4
1305	651	0.0070001912	3
1305	651	0.0070001912	2
1305	651	0.0070001912	1
1305	651	0.0070001912	0
1305	922	0.013	1
1305	923	0.013	2
1305	924	0.013	3
1305	925	0.013	4
1305	926	0.013	5
1305	927	0.013	6
1305	928	0.013	7
1305	929	0.013	8
1305	930	0.013	9
1305	931	0.013	10
1305	932	0.013	11
1305	933	0.013	12
1305	1166	0.019	13
1305	1167	0.019	14
1305	1168	0.019	15
1305	1169	0.019	16
1305	1170	0.019	17
1305	1171	0.019	18
1305	1172	0.019	19
1305	1173	0.019	20
1305	1174	0.019	21
1305	1175	0.019	22
1305	1176	0.019	23
1305	1177	0.019	24
1305	1442	0.025	25
1305	1443	0.025	26
1305	1444	0.025	27
1305	1445	0.025	28
1305	1446	0.025	29
1305	1447	0.025	30
1305	1448	0.025	31
1305	1449	0.025	32
1305	1450	0.025	33
1305	1451	0.025	34
1305	1452	0.025	35
1305	1453	0.025	36
1305	1755	0.031	37
1305	1756	0.031	38
1305	1757	0.031	39
1305	1758	0.031	40
1305	1759	0.031	41
1305	1760	0.031	42
1305	1761	0.031	43
1305	1762	0.031	44
1305	1763	0.031	45
1305	1764	0.031	46
1305	1765	0.031	47
1305	1766	0.031	48
1305	2090	0.037	49
1305	2091	0.037	50
1305	2092	0.037	51
1305	2093	0.037	52
1305	2094	0.037	53
1305	2095	0.037	54
1305	2096	0.037	55
1305	2097	0.037	56
1305	2098	0.037	57
1305	2099	0.037	58
1305	2100	0.037	59
1305	2101	0.037	60
1305	2453	0.043	61
1305	2454	0.043	62
1305	2455	0.043	63
1305	2456	0.043	64
1305	2457	0.043	65
1305	2458	0.043	66
1305	2459	0.043	67
1305	2460	0.043	68
1305	2461	0.043	69
1305	2462	0.043	70
1305	2463	0.043	71
1305	2464	0.043	72
1305	2765	0.049	73
1305	2766	0.049	74
1305	2767	0.049	75
1305	2768	0.049	76
1305	2769	0.049	77
1305	2770	0.049	78
1305	2771	0.049	79
1305	2772	0.049	80
1305	2773	0.049	81
1305	2774	0.049	82
1305	2775	0.049	83
1305	2776	0.049	84
1305	3101	0.055	85
1305	3102	0.055	86
1305	3103	0.055	87
1305	3104	0.055	88
1305	3105	0.055	89
1305	3106	0.055	90
1305	3107	0.055	91
1305	3108	0.055	92
1305	3109	0.055	93
1305	3110	0.055	94
1305	3111	0.055	95
1305	3112	0.055	96
1305	10767	0.2070005424	95
1305	10767	0.2070005424	94
1305	10767	0.2070005424	93
1305	10767	0.2070005424	92
1305	10767	0.2070005424	91
1305	10767	0.2070005424	90
1305	10767	0.2070005424	89
1305	10767	0.2070005424	88
1305	10767	0.2070005424	87
1305	10767	0.2070005424	86
1305	10767	0.2070005424	85
1305	10767	0.2070005424	84
1305	10767	0.2070005424	83
1305	10767	0.2070005424	82
1305	10767	0.2070005424	81
1305	10767	0.2070005424	80
1305	10767	0.2070005424	79
1305	10767	0.2070005424	78
1305	10767	0.2070005424	77
1305	10767	0.2070005424	76
1305	10767	0.2070005424	75
1305	10767	0.2070005424	74
1305	10767	0.2070005424	73
1305	10767	0.2070005424	72
1305	10767	0.2070005424	71
1305	10767	0.2070005424	70
1305	10767	0.2070005424	69
1305	10767	0.2070005424	68
1305	10767	0.2070005424	67
1305	10767	0.2070005424	66
1305	10767	0.2070005424	65
1305	10767	0.2070005424	64
1305	10767	0.2070005424	63
1305	10767	0.2070005424	62
1305	10767	0.2070005424	61
1305	10767	0.2070005424	60
1305	10767	0.2070005424	59
1305	10767	0.2070005424	58
1305	10767	0.2070005424	57
1305	10767	0.2070005424	56
1305	10767	0.2070005424	55
1305	10767	0.2070005424	54
1305	10767	0.2070005424	53
1305	10767	0.2070005424	52
1305	10767	0.2070005424	51
1305	10767	0.2070005424	50
1305	10767	0.2070005424	49
1305	10767	0.2070005424	48
1305	10767	0.2070005424	47
1305	10767	0.2070005424	46
1305	10767	0.2070005424	45
1305	10767	0.2070005424	44
1305	10767	0.2070005424	43
1305	10767	0.2070005424	42
1305	10767	0.2070005424	41
1305	10767	0.2070005424	40
1305	10767	0.2070005424	39
1305	10767	0.2070005424	38
1305	10767	0.2070005424	37
1305	10767	0.2070005424	36
1305	10767	0.2070005424	35
1305	10767	0.2070005424	34
1305	10767	0.2070005424	33
1305	10767	0.2070005424	32
1305	10767	0.2070005424	31
1305	10767	0.2070005424	30
1305	10767	0.2070005424	29
1305	10767	0.2070005424	28
1305	10767	0.2070005424	27
1305	10767	0.2070005424	26
1305	10767	0.2070005424	25
1305	10767	0.2070005424	24
1305	10767	0.2070005424	23
1305	10767	0.2070005424	22
1305	10767	0.2070005424	21
1305	10767	0.2070005424	20
1305	10767	0.2070005424	19
1305	10767	0.2070005424	18
1305	10767	0.2070005424	17
1305	10767	0.2070005424	16
1305	10767	0.2070005424	15
1305	10767	0.2070005424	14
1305	10767	0.2070005424	13
1305	10767	0.2070005424	12
1305	10767	0.2070005424	11
1305	10767	0.2070005424	10
1305	10767	0.2070005424	9
1305	10767	0.2070005424	8
1305	10767	0.2070005424	7
1305	10767	0.2070005424	6
1305	10767	0.2070005424	5
1305	10767	0.2070005424	4
1305	10767	0.2070005424	3
1305	10767	0.2070005424	2
1305	10767	0.2070005424	1
1305	10767	0.2070005424	0
1319	1203	0.019660798032	7504
1319	134992	3.019660798032	7504
1320	1203	0.019660798032	7504
1320	134992	3.019660798032	7504
1322	1203	0.019660798032	0
1322	134992	3.019660798032	0
1333	1203	0.019660798032	0
1333	134992	3.019660798032	0
1343	1314	0.022555459228	7504
1343	135137	3.022555459228	7504
1344	1314	0.022555459228	7504
1344	135137	3.022555459228	7504
1346	1314	0.022555459228	0
1346	135137	3.022555459228	0
1357	1314	0.022555459228	0
1357	135137	3.022555459228	0
1367	1483	0.025952952534	7504
1367	135293	3.025952952534	7504
1368	1483	0.025952952534	7504
1368	135293	3.025952952534	7504
1370	1483	0.025952952534	0
1370	135293	3.025952952534	0
1381	1483	0.025952952534	0
1381	135293	3.025952952534	0
1391	1614	0.028524626123	7504
1391	135463	3.028524626123	7504
1392	1614	0.028524626123	7504
1392	135463	3.028524626123	7504
1394	1614	0.028524626123	0
1394	135463	3.028524626123	0
1405	1614	0.028524626123	0
1405	135463	3.028524626123	0
1415	1873	0.032752273618	7504
1415	135737	3.032752273618	7504
1416	1873	0.032752273618	7504
1416	135737	3.032752273618	7504
1418	1873	0.032752273618	0
1418	135737	3.032752273618	0
1429	1873	0.032752273618	0
1429	135737	3.032752273618	0
1439	2182	0.037729873816	7504
1439	136046	3.037729873816	7504
1440	2182	0.037729873816	7504
1440	136046	3.037729873816	7504
1442	2182	0.037729873816	0
1442	136046	3.037729873816	0
1453	2182	0.037729873816	0
1453	136046	3.037729873816	0
1463	2624	0.046595396413	7504
1463	136509	3.046595396413	7504
1464	2624	0.046595396413	7504
1464	136509	3.046595396413	7504
1466	2624	0.046595396413	0
1466	136509	3.046595396413	0
1477	2624	0.046595396413	0
1477	136509	3.046595396413	0
1487	2982	0.053440309435	7504
1487	136826	3.053440309435	7504
1488	2982	0.053440309435	7504
1488	136826	3.053440309435	7504
1490	2982	0.053440309435	0
1490	136826	3.053440309435	0
1501	2982	0.053440309435	0
1501	136826	3.053440309435	0
1511	2990	0.05394782705	7504
1511	136833	3.05394782705	7504
1512	2990	0.05394782705	7504
1512	136833	3.05394782705	7504
1514	2990	0.05394782705	0
1514	136833	3.05394782705	0
1525	2990	0.05394782705	0
1525	136833	3.05394782705	0
1535	3156	0.055913616046	7504
1535	136955	3.055913616046	7504
1536	3156	0.055913616046	7504
1536	136955	3.055913616046	7504
1538	3156	0.055913616046	0
1538	136955	3.055913616046	0
1549	3156	0.055913616046	0
1549	136955	3.055913616046	0
1559	3444	0.058808041334	7504
1559	137128	3.058808041334	7504
1560	3444	0.058808041334	7504
1560	137128	3.058808041334	7504
1562	3444	0.058808041334	0
1562	137128	3.058808041334	0
1573	3444	0.058808041334	0
1573	137128	3.058808041334	0
1583	3538	0.060918334927	7504
1583	137238	3.060918334927	7504
1584	3538	0.060918334927	7504
1584	137238	3.060918334927	7504
1586	3538	0.060918334927	0
1586	137238	3.060918334927	0
1597	3538	0.060918334927	0
1597	137238	3.060918334927	0
1607	3899	0.066956260251	7504
1607	137600	3.066956260251	7504
1608	3899	0.066956260251	7504
1608	137600	3.066956260251	7504
1610	3899	0.066956260251	0
1610	137600	3.066956260251	0
1621	3899	0.066956260251	0
1621	137600	3.066956260251	0
1631	4086	0.068834142487	7504
1631	137811	3.068834142487	7504
1632	4086	0.068834142487	7504
1632	137811	3.068834142487	7504
1634	4086	0.068834142487	0
1634	137811	3.068834142487	0
1645	4086	0.068834142487	0
1645	137811	3.068834142487	0
1655	4186	0.069116189484	7504
1655	137871	3.069116189484	7504
1656	4186	0.069116189484	7504
1656	137871	3.069116189484	7504
1658	4186	0.069116189484	0
1658	137871	3.069116189484	0
1669	4186	0.069116189484	0
1669	137871	3.069116189484	0
1679	4488	0.074373740533	7504
1679	138217	3.074373740533	7504
1680	4488	0.074373740533	7504
1680	138217	3.074373740533	7504
1682	4488	0.074373740533	0
1682	138217	3.074373740533	0
1693	4488	0.074373740533	0
1693	138217	3.074373740533	0
1703	4579	0.07505697578	7504
1703	138268	3.07505697578	7504
1704	4579	0.07505697578	7504
1704	138268	3.07505697578	7504
1706	4579	0.07505697578	0
1706	138268	3.07505697578	0
1717	4579	0.07505697578	0
1717	138268	3.07505697578	0
1727	4985	0.08215464002	7504
1727	138714	3.08215464002	7504
1728	4985	0.08215464002	7504
1728	138714	3.08215464002	7504
1730	4985	0.08215464002	0
1730	138714	3.08215464002	0
1741	4985	0.08215464002	0
1741	138714	3.08215464002	0
1751	5022	0.083428886256	7504
1751	138782	3.083428886256	7504
1752	5022	0.083428886256	7504
1752	138782	3.083428886256	7504
1754	5022	0.083428886256	0
1754	138782	3.083428886256	0
1765	5022	0.083428886256	0
1765	138782	3.083428886256	0
1775	5215	0.086610205313	7504
1775	138997	3.086610205313	7504
1776	5215	0.086610205313	7504
1776	138997	3.086610205313	7504
1778	5215	0.086610205313	0
1778	138997	3.086610205313	0
1789	5215	0.086610205313	0
1789	138997	3.086610205313	0
