file 3619221 1580826516                                         
version 2
run CAIN-8-20200204-11:27:36-9008
attr configname CAIN
attr datetime 20200204-11:27:36
attr dist 200
attr experiment CAIN
attr inifile omnetpp.ini
attr iterationvars "$dist=200, $mob=\"./movements/RWPRPGM-0.0.movements\""
attr iterationvars2 "$dist=200, $mob=\"./movements/RWPRPGM-0.0.movements\", $repetition=8"
attr measurement "$dist=200, $mob=\"./movements/RWPRPGM-0.0.movements\""
attr mob "\"./movements/RWPRPGM-0.0.movements\""
attr network lte.simulations.networks.CAIN
attr processid 9008
attr repetition 8
attr replication #8
attr resultdir results
attr runnumber 8
attr seedset 8
param **.**.amcMode "\"AUTO\""
param **.amcMode "\"D2D\""
param **.cainNetwork true
param **.channelControl.alpha 1.0
param **.channelControl.carrierFrequency 2100e+6Hz
param **.channelControl.pMax 10W
param **.d2dCqi 7
param **.deployer.numRbDl 50
param **.deployer.numRbUl 50
param **.distThresh "${dist=200..260 step 10}"
param **.fbDelay 1
param **.feedbackComputation "xmldoc(\"config_channel.xml\")"
param **.mobility.constraintAreaMaxX 1000m
param **.mobility.constraintAreaMaxY 1000m
param **.mobility.constraintAreaMaxZ 0m
param **.mobility.constraintAreaMinX 0m
param **.mobility.constraintAreaMinY 0m
param **.mobility.constraintAreaMinZ 0m
param **.nic.phy.channelModel "xmldoc(\"config_channel.xml\")"
param **.numBands 50
param **.pwrThresh -10
param **.qtdThresh 3
param **.rbAllocationType "\"localized\""
param **.routingRecorder.enabled false
param **.tcpApp[*].tClose -1s
param **.ueD2DTx[*].mobility.changeAngleBy "normal(0deg, 30deg)"
param **.ueD2DTx[*].mobility.changeInterval "normal(5s, 0.1s)"
param **.ueD2DTx[*].mobility.nodeId -1
param **.ueD2DTx[*].mobility.speed "normal(2mps, 0.01mps)"
param **.ueD2DTx[*].mobility.traceFile "${mob=\"./movements/RWPRPGM-0.0.movements\",\"./movements/RWPRPGM-0.5.movements\"}"
param **.ueD2DTx[*].mobilityType "\"BonnMotionMobility\""
param **.usePreconfiguredTxParams false
param *.eNodeB.d2dCapable false
param *.eNodeB.mobility.initFromDisplayString false
param *.eNodeB.mobility.initialX 300m
param *.eNodeB.mobility.initialY 300m
param *.eNodeB.nic.phy.enableD2DCqiReporting true
param *.eNodeB.txPower 19952.62315mw
param *.numUeCell 0
param *.numUeD2DRx 1
param *.numUeD2DTx 1
param *.ue*.macCellId 1
param *.ue*.masterId 1
param *.ue*.mobility.initFromDisplayString false
param *.ue*[0].macCellId 1
param *.ue*[0].masterId 1
param *.ue*[0].mobility.initFromDisplayString false
param *.ueD2D*.numTcpApps 1
param *.ueD2D*[*].d2dCapable true
param *.ueD2D*[0].d2dCapable false
param *.ueD2D*[0].numTcpApps 1
param *.ueD2DRx[0].mobility.initialX 310m
param *.ueD2DRx[0].mobility.initialY 350m
param *.ueD2DRx[0].tcpApp[*].localPort 1000
param *.ueD2DRx[0].tcpApp[*].typename "\"TCPSinkApp\""
param *.ueD2DTx*.tcpApp[*].connectAddress "\"ueD2DTx[0]\""
param *.ueD2DTx*.tcpApp[*].localAddress "\"ueD2DTx\""
param *.ueD2DTx*.tcpApp[*].localPort 1000
param *.ueD2DTx*.tcpApp[*].sendBytes 1GiB
param *.ueD2DTx*.tcpApp[*].typename "\"TCPSessionApp\""
param *.ueD2DTx*.tcpApp[0].active true
param *.ueD2DTx*.tcpApp[0].connectPort 1000
param *.ueD2DTx*.tcpApp[0].tOpen uniform(0.010s,0.1s)
param *.ueD2DTx*.tcpApp[0].tSend uniform(0.15s,0.5s)
param *.ueD2DTx[0].mobility.initialX 290m
param *.ueD2DTx[0].mobility.initialY 350m
param *.ueD2DTx[0].nic.d2dPeerAddresses "\"ueD2DTx[1]\""
param *.ueD2DTx[0].tcpApp[*].localPort 1000
param *.ueD2DTx[0].tcpApp[*].sendBytes 1GiB
param *.ueD2DTx[0].tcpApp[*].typename "\"TCPSessionApp\""
param *.ueD2DTx[0].tcpApp[0].active true
param *.ueD2DTx[0].tcpApp[0].connectAddress "\"ueD2DRx[0]\""
param *.ueD2DTx[0].tcpApp[0].connectPort 1000
param *.ueD2DTx[0].tcpApp[0].localAddress "\"ueD2DTx[0]\""
param *.ueD2DTx[0].tcpApp[0].tOpen uniform(0.010s,0.1s)
param *.ueD2DTx[0].tcpApp[0].tSend uniform(0.15s,0.5s)
param *.ueD2DTx[1].nic.d2dPeerAddresses "\"ueD2DTx[0]\""

vector 8  CAIN.server.ppp[0].queue  queueLength:vector  ETV
attr interpolationmode  sample-hold
attr title  "queue length, vector"
vector 9  CAIN.server.ppp[0].ppp  txState:vector  ETV
attr interpolationmode  sample-hold
attr title  "tx state, vector"
vector 24  CAIN.router.ppp[0].queue  queueLength:vector  ETV
attr interpolationmode  sample-hold
attr title  "queue length, vector"
vector 25  CAIN.router.ppp[0].ppp  txState:vector  ETV
attr interpolationmode  sample-hold
attr title  "tx state, vector"
vector 35  CAIN.router.ppp[1].queue  queueLength:vector  ETV
attr interpolationmode  sample-hold
attr title  "queue length, vector"
vector 36  CAIN.router.ppp[1].ppp  txState:vector  ETV
attr interpolationmode  sample-hold
attr title  "tx state, vector"
vector 56  CAIN.pgw.ppp[0].queue  queueLength:vector  ETV
attr interpolationmode  sample-hold
attr title  "queue length, vector"
vector 57  CAIN.pgw.ppp[0].ppp  txState:vector  ETV
attr interpolationmode  sample-hold
attr title  "tx state, vector"
vector 67  CAIN.pgw.pppInterface.queue  queueLength:vector  ETV
attr interpolationmode  sample-hold
attr title  "queue length, vector"
vector 68  CAIN.pgw.pppInterface.ppp  txState:vector  ETV
attr interpolationmode  sample-hold
attr title  "tx state, vector"
vector 104  CAIN.eNodeB.pppIf.queue  queueLength:vector  ETV
attr interpolationmode  sample-hold
attr title  "queue length, vector"
vector 105  CAIN.eNodeB.pppIf.ppp  txState:vector  ETV
attr interpolationmode  sample-hold
attr title  "tx state, vector"
vector 138  CAIN.ueD2DTx[0].nic.phy  servingCell:vector  ETV
attr source  servingCell
attr title  "ID of the serving eNodeB for the UE, vector"
attr unit  ""
vector 165  CAIN.ueD2DTx[1].nic.phy  servingCell:vector  ETV
attr source  servingCell
attr title  "ID of the serving eNodeB for the UE, vector"
attr unit  ""
vector 192  CAIN.ueD2DTx[2].nic.phy  servingCell:vector  ETV
attr source  servingCell
attr title  "ID of the serving eNodeB for the UE, vector"
attr unit  ""
vector 219  CAIN.ueD2DTx[3].nic.phy  servingCell:vector  ETV
attr source  servingCell
attr title  "ID of the serving eNodeB for the UE, vector"
attr unit  ""
vector 246  CAIN.ueD2DTx[4].nic.phy  servingCell:vector  ETV
attr source  servingCell
attr title  "ID of the serving eNodeB for the UE, vector"
attr unit  ""
vector 85  CAIN.eNodeB.nic.mac  receivedPacketFromLowerLayer:vector(packetBytes)  ETV
attr interpolationmode  none
attr source  receivedPacketFromLowerLayer
vector 264  CAIN.ueD2DTx[3].tcp  tcpRcvQueueBytes  ETV
vector 251  CAIN.ueD2DTx[3].tcp  "advertised window"  ETV
vector 250  CAIN.ueD2DTx[3].tcp  "receive window"  ETV
vector 253  CAIN.ueD2DTx[3].tcp  "sent ack"  ETV
vector 198  CAIN.ueD2DTx[3].nic.pdcpRrc  receivedPacketFromUpperLayer:vector(packetBytes)  ETV
attr interpolationmode  none
attr source  receivedPacketFromUpperLayer
vector 201  CAIN.ueD2DTx[3].nic.pdcpRrc  sentPacketToLowerLayer:vector(packetBytes)  ETV
attr interpolationmode  none
attr source  sentPacketToLowerLayer
vector 202  CAIN.ueD2DTx[3].nic.mac  receivedPacketFromUpperLayer:vector(packetBytes)  ETV
attr interpolationmode  none
attr source  receivedPacketFromUpperLayer
vector 205  CAIN.ueD2DTx[3].nic.mac  sentPacketToLowerLayer:vector(packetBytes)  ETV
attr interpolationmode  none
attr source  sentPacketToLowerLayer
vector 288  CAIN.ueD2DTx[4].tcp  tcpRcvQueueBytes  ETV
vector 275  CAIN.ueD2DTx[4].tcp  "advertised window"  ETV
vector 274  CAIN.ueD2DTx[4].tcp  "receive window"  ETV
vector 277  CAIN.ueD2DTx[4].tcp  "sent ack"  ETV
vector 225  CAIN.ueD2DTx[4].nic.pdcpRrc  receivedPacketFromUpperLayer:vector(packetBytes)  ETV
attr interpolationmode  none
attr source  receivedPacketFromUpperLayer
vector 228  CAIN.ueD2DTx[4].nic.pdcpRrc  sentPacketToLowerLayer:vector(packetBytes)  ETV
attr interpolationmode  none
attr source  sentPacketToLowerLayer
vector 229  CAIN.ueD2DTx[4].nic.mac  receivedPacketFromUpperLayer:vector(packetBytes)  ETV
attr interpolationmode  none
attr source  receivedPacketFromUpperLayer
vector 232  CAIN.ueD2DTx[4].nic.mac  sentPacketToLowerLayer:vector(packetBytes)  ETV
attr interpolationmode  none
attr source  sentPacketToLowerLayer
vector 96  CAIN.eNodeB.nic.mac  racpkt:vector  ETV
attr interpolationmode  none
attr title  "eNB received racpkt message, vector"
vector 97  CAIN.eNodeB.nic.mac  racDistanceSignal:vector  ETV
attr interpolationmode  none
attr title  "Rac distance to enb, vector"
vector 87  CAIN.eNodeB.nic.mac  sentPacketToLowerLayer:vector(packetBytes)  ETV
attr interpolationmode  none
attr source  sentPacketToLowerLayer
vector 176  CAIN.ueD2DTx[2].nic.mac  receivedPacketFromLowerLayer:vector(packetBytes)  ETV
attr interpolationmode  none
attr source  receivedPacketFromLowerLayer
vector 187  CAIN.ueD2DTx[2].nic.mac  racpkt:vector  ETV
attr interpolationmode  none
attr title  "eNB received racpkt message, vector"
vector 188  CAIN.ueD2DTx[2].nic.mac  racDistanceSignal:vector  ETV
attr interpolationmode  none
attr title  "Rac distance to enb, vector"
vector 178  CAIN.ueD2DTx[2].nic.mac  sentPacketToLowerLayer:vector(packetBytes)  ETV
attr interpolationmode  none
attr source  sentPacketToLowerLayer
vector 203  CAIN.ueD2DTx[3].nic.mac  receivedPacketFromLowerLayer:vector(packetBytes)  ETV
attr interpolationmode  none
attr source  receivedPacketFromLowerLayer
vector 149  CAIN.ueD2DTx[1].nic.mac  receivedPacketFromLowerLayer:vector(packetBytes)  ETV
attr interpolationmode  none
attr source  receivedPacketFromLowerLayer
vector 160  CAIN.ueD2DTx[1].nic.mac  racpkt:vector  ETV
attr interpolationmode  none
attr title  "eNB received racpkt message, vector"
vector 161  CAIN.ueD2DTx[1].nic.mac  racDistanceSignal:vector  ETV
attr interpolationmode  none
attr title  "Rac distance to enb, vector"
vector 151  CAIN.ueD2DTx[1].nic.mac  sentPacketToLowerLayer:vector(packetBytes)  ETV
attr interpolationmode  none
attr source  sentPacketToLowerLayer
vector 230  CAIN.ueD2DTx[4].nic.mac  receivedPacketFromLowerLayer:vector(packetBytes)  ETV
attr interpolationmode  none
attr source  receivedPacketFromLowerLayer
vector 241  CAIN.ueD2DTx[4].nic.mac  racpkt:vector  ETV
attr interpolationmode  none
attr title  "eNB received racpkt message, vector"
vector 242  CAIN.ueD2DTx[4].nic.mac  racDistanceSignal:vector  ETV
attr interpolationmode  none
attr title  "Rac distance to enb, vector"
vector 204  CAIN.ueD2DTx[3].nic.mac  sentPacketToUpperLayer:vector(packetBytes)  ETV
attr interpolationmode  none
attr source  sentPacketToUpperLayer
vector 122  CAIN.ueD2DTx[0].nic.mac  receivedPacketFromLowerLayer:vector(packetBytes)  ETV
attr interpolationmode  none
attr source  receivedPacketFromLowerLayer
vector 133  CAIN.ueD2DTx[0].nic.mac  racpkt:vector  ETV
attr interpolationmode  none
attr title  "eNB received racpkt message, vector"
vector 134  CAIN.ueD2DTx[0].nic.mac  racDistanceSignal:vector  ETV
attr interpolationmode  none
attr title  "Rac distance to enb, vector"
vector 124  CAIN.ueD2DTx[0].nic.mac  sentPacketToLowerLayer:vector(packetBytes)  ETV
attr interpolationmode  none
attr source  sentPacketToLowerLayer
vector 214  CAIN.ueD2DTx[3].nic.mac  racpkt:vector  ETV
attr interpolationmode  none
attr title  "eNB received racpkt message, vector"
vector 215  CAIN.ueD2DTx[3].nic.mac  racDistanceSignal:vector  ETV
attr interpolationmode  none
attr title  "Rac distance to enb, vector"
vector 231  CAIN.ueD2DTx[4].nic.mac  sentPacketToUpperLayer:vector(packetBytes)  ETV
attr interpolationmode  none
attr source  sentPacketToUpperLayer
vector 99  CAIN.eNodeB.nic.phy  averageCqiUlvect:vector  ETV
attr source  averageCqiUlvect
attr title  "Average Cqi reported in UL, vector"
attr unit  cqi
vector 93  CAIN.eNodeB.nic.mac  ServedDevs:vector  ETV
attr interpolationmode  none
attr title  "# of devices served on cain forwarding, vector"
vector 91  CAIN.eNodeB.nic.mac  DistanceSignal:vector  ETV
attr interpolationmode  none
attr title  "Distance to enb, vector"
vector 89  CAIN.eNodeB.nic.mac  CainMessage:vector  ETV
attr interpolationmode  none
attr title  "eNB received CAIN message, vector"
vector 92  CAIN.eNodeB.nic.mac  HopDistanceSignal:vector  ETV
attr interpolationmode  none
attr title  "Distance to enb with hop forwarding, vector"
vector 90  CAIN.eNodeB.nic.mac  CainHopMessage:vector  ETV
attr interpolationmode  none
attr title  "eNB received CAIN hop message, vector"
vector 86  CAIN.eNodeB.nic.mac  sentPacketToUpperLayer:vector(packetBytes)  ETV
attr interpolationmode  none
attr source  sentPacketToUpperLayer
vector 81  CAIN.eNodeB.nic.pdcpRrc  receivedPacketFromLowerLayer:vector(packetBytes)  ETV
attr interpolationmode  none
attr source  receivedPacketFromLowerLayer
vector 82  CAIN.eNodeB.nic.pdcpRrc  sentPacketToUpperLayer:vector(packetBytes)  ETV
attr interpolationmode  none
attr source  sentPacketToUpperLayer
vector 80  CAIN.eNodeB.nic.pdcpRrc  receivedPacketFromUpperLayer:vector(packetBytes)  ETV
attr interpolationmode  none
attr source  receivedPacketFromUpperLayer
vector 83  CAIN.eNodeB.nic.pdcpRrc  sentPacketToLowerLayer:vector(packetBytes)  ETV
attr interpolationmode  none
attr source  sentPacketToLowerLayer
vector 84  CAIN.eNodeB.nic.mac  receivedPacketFromUpperLayer:vector(packetBytes)  ETV
attr interpolationmode  none
attr source  receivedPacketFromUpperLayer
vector 88  CAIN.eNodeB.nic.mac  measuredItbs:vector  ETV
attr source  measuredItbs
attr title  "TBS index, vector"
attr unit  ""
vector 135  CAIN.ueD2DTx[0].nic.phy  averageCqiDlvect:vector  ETV
attr source  averageCqiDlvect
attr title  "Average Cqi reported in DL, vector"
attr unit  cqi
vector 123  CAIN.ueD2DTx[0].nic.mac  sentPacketToUpperLayer:vector(packetBytes)  ETV
attr interpolationmode  none
attr source  sentPacketToUpperLayer
vector 118  CAIN.ueD2DTx[0].nic.pdcpRrc  receivedPacketFromLowerLayer:vector(packetBytes)  ETV
attr interpolationmode  none
attr source  receivedPacketFromLowerLayer
vector 119  CAIN.ueD2DTx[0].nic.pdcpRrc  sentPacketToUpperLayer:vector(packetBytes)  ETV
attr interpolationmode  none
attr source  sentPacketToUpperLayer
vector 312  CAIN.ueD2DTx[1].tcp  tcpRcvQueueBytes  ETV
vector 299  CAIN.ueD2DTx[1].tcp  "advertised window"  ETV
vector 298  CAIN.ueD2DTx[1].tcp  "receive window"  ETV
vector 301  CAIN.ueD2DTx[1].tcp  "sent ack"  ETV
vector 144  CAIN.ueD2DTx[1].nic.pdcpRrc  receivedPacketFromUpperLayer:vector(packetBytes)  ETV
attr interpolationmode  none
attr source  receivedPacketFromUpperLayer
vector 147  CAIN.ueD2DTx[1].nic.pdcpRrc  sentPacketToLowerLayer:vector(packetBytes)  ETV
attr interpolationmode  none
attr source  sentPacketToLowerLayer
vector 148  CAIN.ueD2DTx[1].nic.mac  receivedPacketFromUpperLayer:vector(packetBytes)  ETV
attr interpolationmode  none
attr source  receivedPacketFromUpperLayer
vector 150  CAIN.ueD2DTx[1].nic.mac  sentPacketToUpperLayer:vector(packetBytes)  ETV
attr interpolationmode  none
attr source  sentPacketToUpperLayer
vector 189  CAIN.ueD2DTx[2].nic.phy  averageCqiDlvect:vector  ETV
attr source  averageCqiDlvect
attr title  "Average Cqi reported in DL, vector"
attr unit  cqi
vector 177  CAIN.ueD2DTx[2].nic.mac  sentPacketToUpperLayer:vector(packetBytes)  ETV
attr interpolationmode  none
attr source  sentPacketToUpperLayer
vector 172  CAIN.ueD2DTx[2].nic.pdcpRrc  receivedPacketFromLowerLayer:vector(packetBytes)  ETV
attr interpolationmode  none
attr source  receivedPacketFromLowerLayer
vector 173  CAIN.ueD2DTx[2].nic.pdcpRrc  sentPacketToUpperLayer:vector(packetBytes)  ETV
attr interpolationmode  none
attr source  sentPacketToUpperLayer
vector 336  CAIN.ueD2DTx[0].tcp  tcpRcvQueueBytes  ETV
vector 323  CAIN.ueD2DTx[0].tcp  "advertised window"  ETV
vector 322  CAIN.ueD2DTx[0].tcp  "receive window"  ETV
vector 325  CAIN.ueD2DTx[0].tcp  "sent ack"  ETV
vector 117  CAIN.ueD2DTx[0].nic.pdcpRrc  receivedPacketFromUpperLayer:vector(packetBytes)  ETV
attr interpolationmode  none
attr source  receivedPacketFromUpperLayer
vector 120  CAIN.ueD2DTx[0].nic.pdcpRrc  sentPacketToLowerLayer:vector(packetBytes)  ETV
attr interpolationmode  none
attr source  sentPacketToLowerLayer
vector 121  CAIN.ueD2DTx[0].nic.mac  receivedPacketFromUpperLayer:vector(packetBytes)  ETV
attr interpolationmode  none
attr source  receivedPacketFromUpperLayer
vector 360  CAIN.ueD2DTx[2].tcp  tcpRcvQueueBytes  ETV
vector 347  CAIN.ueD2DTx[2].tcp  "advertised window"  ETV
vector 346  CAIN.ueD2DTx[2].tcp  "receive window"  ETV
vector 349  CAIN.ueD2DTx[2].tcp  "sent ack"  ETV
vector 171  CAIN.ueD2DTx[2].nic.pdcpRrc  receivedPacketFromUpperLayer:vector(packetBytes)  ETV
attr interpolationmode  none
attr source  receivedPacketFromUpperLayer
vector 174  CAIN.ueD2DTx[2].nic.pdcpRrc  sentPacketToLowerLayer:vector(packetBytes)  ETV
attr interpolationmode  none
attr source  sentPacketToLowerLayer
vector 175  CAIN.ueD2DTx[2].nic.mac  receivedPacketFromUpperLayer:vector(packetBytes)  ETV
attr interpolationmode  none
attr source  receivedPacketFromUpperLayer
vector 243  CAIN.ueD2DTx[4].nic.phy  averageCqiDlvect:vector  ETV
attr source  averageCqiDlvect
attr title  "Average Cqi reported in DL, vector"
attr unit  cqi
vector 226  CAIN.ueD2DTx[4].nic.pdcpRrc  receivedPacketFromLowerLayer:vector(packetBytes)  ETV
attr interpolationmode  none
attr source  receivedPacketFromLowerLayer
vector 227  CAIN.ueD2DTx[4].nic.pdcpRrc  sentPacketToUpperLayer:vector(packetBytes)  ETV
attr interpolationmode  none
attr source  sentPacketToUpperLayer
8	17253 8 0 0 0 0 1 0 0 0 0
9	17261 8 0 0 0 0 1 0 0 0 0
24	17269 9 0 0 0 0 1 0 0 0 0
25	17278 9 0 0 0 0 1 0 0 0 0
35	17287 9 0 0 0 0 1 0 0 0 0
36	17296 9 0 0 0 0 1 0 0 0 0
56	17305 9 0 0 0 0 1 0 0 0 0
57	17314 9 0 0 0 0 1 0 0 0 0
67	17323 9 0 0 0 0 1 0 0 0 0
68	17332 9 0 0 0 0 1 0 0 0 0
80	17341 213 432 211038 0.023 9.086 12 44 44 528 23232
81	17554 213 427 211033 0.023 9.086 12 45 45 540 24300
82	17767 213 427 211033 0.023 9.086 12 44 44 528 23232
83	17980 213 432 211038 0.023 9.086 12 45 45 540 24300
84	18193 426 435 211064 0.023 9.087 24 45 47 1104 50808
85	18619 317386 60 232237 0.002 10 18346 0 0 0 0
86	336005 414 423 211060 0.023 9.087 24 0 47 564 26508
87	336419 139464 226 232216 0.016 10 8021 0 0 0 0
88	475883 213 451 211060 0.024 9.087 12 26 26 312 8112
89	476096 160581 378 232237 0.02 10 7984 1 7984 31876120 169676586760
90	636677 78631 420 232237 0.022 10 3992 1 3992 7970028 21213557860
91	715308 77958 378 232192 0.02 9.998 3992 162 424 1169656 411215920
92	793266 75746 420 232237 0.022 10 3992 182 253 868260 193877468
93	869012 69974 378 232192 0.02 9.998 3992 1 2 7983 15965
96	938986 119689 226 232237 0.016 10 5992 1 5992 17955028 71730336860
97	1058675 110809 226 232237 0.016 10 5992 78 253 675316 90565526
99	1169484 261 357 211086 0.02 9.088 15 2 15 186 2712
104	1169745 10 0 0 0 0 1 0 0 0 0
105	1169755 10 0 0 0 0 1 0 0 0 0
117	1169765 84 1020 210433 0.062000192828 9.062000192828 3 44 44 132 5808
118	1169849 112 529 209521 0.028 9.029 6 45 45 270 12150
119	1169961 112 529 209521 0.028 9.029 6 44 44 264 11616
120	1170073 84 1020 210433 0.062000192828 9.062000192828 3 45 45 135 6075
121	1170157 84 1023 210436 0.062000192828 9.062000192828 3 45 45 135 6075
122	1170241 74022 323 232154 0.019 9.997 3995 0 0 0 0
123	1244263 112 525 209517 0.028 9.029 6 47 47 282 13254
124	1244375 73985 323 232166 0.019 9.998 3993 0 0 0 0
133	1318360 41926 323 232154 0.019 9.997 1999 1 1999 1999000 2664667000
134	1360286 41028 323 232154 0.019 9.997 1999 0 215 429140 92265100
135	1401314 112 496 209457 0.025 9.026 6 15 15 90 1350
138	1401426 10 0 0 0 0 1 1 1 1 1
144	1401436 80 646 209740 0.03745095067 9.03745095067 3 44 44 132 5808
147	1401516 80 646 209740 0.03745095067 9.03745095067 3 45 45 135 6075
148	1401596 136 649 209875 0.03745095067 9.042 6 45 47 276 12702
149	1401732 185026 279 232187 0.018 9.998 9986 0 0 0 0
150	1586758 53 726 209871 0.042 9.042 3 0 0 0 0
151	1586811 185026 279 232187 0.018 9.998 9986 0 0 0 0
160	1771837 213753 279 232187 0.018 9.998 9980 1 9980 49805190 331387132530
161	1985590 198892 279 232187 0.018 9.998 9980 78 253 1335324 230308460
165	2184482 10 0 0 0 0 1 1 1 1 1
171	2184492 84 1345 210777 0.077231628036 9.077231628036 3 44 44 132 5808
172	2184576 56 890 210149 0.051 9.051 3 45 45 135 6075
173	2184632 56 890 210149 0.051 9.051 3 44 44 132 5808
174	2184688 84 1345 210777 0.077231628036 9.077231628036 3 45 45 135 6075
175	2184772 141 1348 210918 0.077231628036 9.082 6 45 47 276 12702
176	2184913 255754 244 232231 0.017 10 13984 0 0 0 0
177	2440667 110 886 210914 0.051 9.082 6 0 47 141 6627
178	2440777 291639 244 232231 0.017 10 15981 0 0 0 0
187	2732416 300387 244 232231 0.017 10 13975 1 13975 97657300 909873064100
188	3032803 271561 244 232231 0.017 10 13975 0 215 1610772 329178324
189	3304364 56 852 210075 0.048 9.048 3 15 15 45 675
192	3304420 10 0 0 0 0 1 1 1 1 1
198	3304430 83 197 208995 0.014324738516 9.014324738516 3 44 44 132 5808
201	3304513 83 197 208995 0.014324738516 9.014324738516 3 45 45 135 6075
202	3304596 139 200 209153 0.014324738516 9.019 6 45 47 276 12702
203	3304735 37088 267 232157 0.018 9.997 2002 0 0 0 0
204	3341823 53 299 209149 0.019 9.019 3 0 0 0 0
205	3341876 37088 205 232157 0.015 9.997 2002 0 0 0 0
214	3378964 41863 326 232157 0.019 9.997 1996 1 1996 1993006 2652690986
215	3420827 40974 326 232157 0.019 9.997 1996 215 215 429140 92265100
219	3461801 10 0 0 0 0 1 1 1 1 1
225	3461811 83 213 209025 0.015597002159 9.015597002159 3 44 44 132 5808
226	3461894 57 1706 211138 0.091 9.091 3 45 45 135 6075
227	3461951 57 1706 211138 0.091 9.091 3 44 44 132 5808
228	3462008 83 213 209025 0.015597002159 9.015597002159 3 45 45 135 6075
229	3462091 136 216 209205 0.015597002159 9.02 6 45 47 276 12702
230	3462227 37145 288 232138 0.018 9.996 2005 0 0 0 0
231	3499372 107 339 211134 0.02 9.091 6 0 47 141 6627
232	3499479 37142 222 232138 0.016 9.996 2005 0 0 0 0
241	3536621 41866 288 232138 0.018 9.996 1996 1 1996 1993006 2652690986
242	3578487 38981 288 232138 0.018 9.996 1996 78 78 155688 12143664
243	3617468 57 1652 211084 0.088 9.088 3 15 15 45 675
246	3617525 10 0 0 0 0 1 1 1 1 1
250	3617535 89 194 208992 0.014324738516 9.014324738516 3 7504 7504 22512 168930048
251	3617624 89 194 208992 0.014324738516 9.014324738516 3 7504 7504 22512 168930048
253	3617713 80 194 208992 0.014324738516 9.014324738516 3 0 0 0 0
264	3617793 80 194 208992 0.014324738516 9.014324738516 3 0 0 0 0
274	3617873 89 210 209022 0.015597002159 9.015597002159 3 7504 7504 22512 168930048
275	3617962 89 210 209022 0.015597002159 9.015597002159 3 7504 7504 22512 168930048
277	3618051 80 210 209022 0.015597002159 9.015597002159 3 0 0 0 0
288	3618131 80 210 209022 0.015597002159 9.015597002159 3 0 0 0 0
298	3618211 86 643 209737 0.03745095067 9.03745095067 3 7504 7504 22512 168930048
299	3618297 86 643 209737 0.03745095067 9.03745095067 3 7504 7504 22512 168930048
301	3618383 77 643 209737 0.03745095067 9.03745095067 3 0 0 0 0
312	3618460 77 643 209737 0.03745095067 9.03745095067 3 0 0 0 0
322	3618537 90 1017 210430 0.062000192828 9.062000192828 3 7504 7504 22512 168930048
323	3618627 90 1017 210430 0.062000192828 9.062000192828 3 7504 7504 22512 168930048
325	3618717 81 1017 210430 0.062000192828 9.062000192828 3 0 0 0 0
336	3618798 81 1017 210430 0.062000192828 9.062000192828 3 0 0 0 0
346	3618879 90 1342 210774 0.077231628036 9.077231628036 3 7504 7504 22512 168930048
347	3618969 90 1342 210774 0.077231628036 9.077231628036 3 7504 7504 22512 168930048
349	3619059 81 1342 210774 0.077231628036 9.077231628036 3 0 0 0 0
360	3619140 81 1342 210774 0.077231628036 9.077231628036 3 0 0 0 0
