version 2
run CAIN-80-20200508-16:32:13-12866
attr configname CAIN
attr datetime 20200508-16:32:13
attr dist 200
attr experiment CAIN
attr extAllocType "\"RANDOM_ALLOC\""
attr inifile omnetpp.ini
attr iterationvars "$numUe=20, $pwr=-50, $dist=200, $mob=\"./movements/RWPRPGM-0.5.movements\", $extAllocType=\"RANDOM_ALLOC\""
attr iterationvars2 "$numUe=20, $pwr=-50, $dist=200, $mob=\"./movements/RWPRPGM-0.5.movements\", $extAllocType=\"RANDOM_ALLOC\", $repetition=0"
attr measurement "$numUe=20, $pwr=-50, $dist=200, $mob=\"./movements/RWPRPGM-0.5.movements\", $extAllocType=\"RANDOM_ALLOC\""
attr mob "\"./movements/RWPRPGM-0.5.movements\""
attr network lte.simulations.networks.CAIN
attr numUe 20
attr processid 12866
attr pwr -50
attr repetition 0
attr replication #0
attr resultdir results
attr runnumber 80
attr seedset 0
param **.**.amcMode "\"AUTO\""
param **.amcMode "\"D2D\""
param **.cainNetwork true
param **.channelControl.alpha 1.0
param **.channelControl.carrierFrequency 2100e+6Hz
param **.channelControl.pMax 10W
param **.d2dCqi 7
param **.deployer.numRbDl 50
param **.deployer.numRbUl 50
param **.distThresh ${dist=200}
param **.fbDelay 1
param **.feedbackComputation "xmldoc(\"config_channel.xml\")"
param **.mobility.constraintAreaMaxX 1000m
param **.mobility.constraintAreaMaxY 1000m
param **.mobility.constraintAreaMaxZ 0m
param **.mobility.constraintAreaMinX 0m
param **.mobility.constraintAreaMinY 0m
param **.mobility.constraintAreaMinZ 0m
param **.nic.phy.channelModel "xmldoc(\"config_channel.xml\")"
param **.numBands 50
param **.pwrThresh "${pwr= -50}"
param **.qtdThresh 3
param **.rbAllocationType "\"localized\""
param **.routingRecorder.enabled false
param **.tcpApp[*].tClose -1s
param **.ueD2DTx[*].mobility.changeAngleBy "normal(0deg, 30deg)"
param **.ueD2DTx[*].mobility.changeInterval "normal(5s, 0.1s)"
param **.ueD2DTx[*].mobility.nodeId -1
param **.ueD2DTx[*].mobility.speed "normal(2mps, 0.01mps)"
param **.ueD2DTx[*].mobility.traceFile "${mob=\"./movements/RWP-0.0.movements\",\"./movements/RWP-0.5.movements\",\"./movements/RPGM-0.0.movements\",\"./movements/RPGM-0.5.movements\",\"./movements/RWPRPGM-0.0.movements\",\"./movements/RWPRPGM-0.5.movements\"}"
param **.ueD2DTx[*].mobilityType "\"BonnMotionMobility\""
param **.usePreconfiguredTxParams false
param *.eNodeB*.numX2Apps 1
param *.eNodeB*.x2App[*].server.localPort "5000 + ancestorIndex(1)"
param *.eNodeB.d2dCapable false
param *.eNodeB.mobility.initFromDisplayString false
param *.eNodeB.mobility.initialX 300m
param *.eNodeB.mobility.initialY 300m
param *.eNodeB.nic.phy.enableD2DCqiReporting true
param *.eNodeB.txPower 19952.62315mw
param *.eNodeB.x2App[0].client.connectAddress "\"eNodeB1%x2ppp0\""
param *.eNodeB1.d2dCapable true
param *.eNodeB1.mobility.initFromDisplayString false
param *.eNodeB1.mobility.initialX 700m
param *.eNodeB1.mobility.initialY 300m
param *.eNodeB1.nic.phy.enableD2DCqiReporting true
param *.eNodeB1.txPower 19952.62315mw
param *.eNodeB1.x2App[0].client.connectAddress "\"eNodeB%x2ppp0\""
param *.extCell[*].bandAllocationType "${extAllocType=\"FULL_ALLOC\",\"RANDOM_ALLOC\",\"CONTIGUOUS_ALLOC\"}"
param *.extCell[*].bandUtilization 0.5
param *.extCell[*].txDirection "\"ANISOTROPIC\""
param *.extCell[*].txPower 20
param *.extCell[0].position_x 100m
param *.extCell[0].position_y 600m
param *.extCell[0].txAngle 315
param *.extCell[1].position_x 600m
param *.extCell[1].position_y 600m
param *.extCell[1].txAngle 225
param *.numExtCells 2
param *.numUeCell 0
param *.numUeD2DRx 1
param *.numUeD2DTx 1
param *.ue*.macCellId 1
param *.ue*.masterId 1
param *.ue*.mobility.initFromDisplayString false
param *.ue*[0].macCellId 1
param *.ue*[0].masterId 1
param *.ue*[0].mobility.initFromDisplayString false
param *.ueD2D*.numTcpApps 1
param *.ueD2D*[*].d2dCapable true
param *.ueD2D*[0].d2dCapable false
param *.ueD2D*[0].numTcpApps 1
param *.ueD2DRx[0].mobility.initialX 310m
param *.ueD2DRx[0].mobility.initialY 350m
param *.ueD2DRx[0].tcpApp[*].localPort 1000
param *.ueD2DRx[0].tcpApp[*].typename "\"TCPSinkApp\""
param *.ueD2DTx*.nic.d2dPeerAddresses "\"ueD2DTx[1]\""
param *.ueD2DTx*.tcpApp[*].connectAddress "\"ueD2DTx[0]\""
param *.ueD2DTx*.tcpApp[*].localAddress "\"ueD2DTx\""
param *.ueD2DTx*.tcpApp[*].localPort 1000
param *.ueD2DTx*.tcpApp[*].sendBytes 1GiB
param *.ueD2DTx*.tcpApp[*].typename "\"TCPSessionApp\""
param *.ueD2DTx*.tcpApp[0].active true
param *.ueD2DTx*.tcpApp[0].connectPort 1000
param *.ueD2DTx*.tcpApp[0].tOpen uniform(0.010s,0.1s)
param *.ueD2DTx*.tcpApp[0].tSend uniform(0.15s,0.5s)
param *.ueD2DTx[0].mobility.initialX 290m
param *.ueD2DTx[0].mobility.initialY 350m
param *.ueD2DTx[0].tcpApp[*].localPort 1000
param *.ueD2DTx[0].tcpApp[*].sendBytes 1GiB
param *.ueD2DTx[0].tcpApp[*].typename "\"TCPSessionApp\""
param *.ueD2DTx[0].tcpApp[0].active true
param *.ueD2DTx[0].tcpApp[0].connectAddress "\"ueD2DRx[0]\""
param *.ueD2DTx[0].tcpApp[0].connectPort 1000
param *.ueD2DTx[0].tcpApp[0].localAddress "\"ueD2DTx[0]\""
param *.ueD2DTx[0].tcpApp[0].tOpen uniform(0.010s,0.1s)
param *.ueD2DTx[0].tcpApp[0].tSend uniform(0.15s,0.5s)
param *.ueD2DTx[1].mobility.initialX 690m
param *.ueD2DTx[1].mobility.initialY 250m

vector 8  CAIN.server.ppp[0].queue  queueLength:vector  ETV
attr interpolationmode  sample-hold
attr title  "queue length, vector"
vector 9  CAIN.server.ppp[0].ppp  txState:vector  ETV
attr interpolationmode  sample-hold
attr title  "tx state, vector"
vector 24  CAIN.router.ppp[0].queue  queueLength:vector  ETV
attr interpolationmode  sample-hold
attr title  "queue length, vector"
vector 25  CAIN.router.ppp[0].ppp  txState:vector  ETV
attr interpolationmode  sample-hold
attr title  "tx state, vector"
vector 35  CAIN.router.ppp[1].queue  queueLength:vector  ETV
attr interpolationmode  sample-hold
attr title  "queue length, vector"
vector 36  CAIN.router.ppp[1].ppp  txState:vector  ETV
attr interpolationmode  sample-hold
attr title  "tx state, vector"
vector 56  CAIN.pgw.ppp[0].queue  queueLength:vector  ETV
attr interpolationmode  sample-hold
attr title  "queue length, vector"
vector 57  CAIN.pgw.ppp[0].ppp  txState:vector  ETV
attr interpolationmode  sample-hold
attr title  "tx state, vector"
vector 67  CAIN.pgw.ppp[1].queue  queueLength:vector  ETV
attr interpolationmode  sample-hold
attr title  "queue length, vector"
vector 68  CAIN.pgw.ppp[1].ppp  txState:vector  ETV
attr interpolationmode  sample-hold
attr title  "tx state, vector"
vector 78  CAIN.pgw.pppInterface.queue  queueLength:vector  ETV
attr interpolationmode  sample-hold
attr title  "queue length, vector"
vector 79  CAIN.pgw.pppInterface.ppp  txState:vector  ETV
attr interpolationmode  sample-hold
attr title  "tx state, vector"
vector 120  CAIN.eNodeB.pppIf.queue  queueLength:vector  ETV
attr interpolationmode  sample-hold
attr title  "queue length, vector"
vector 121  CAIN.eNodeB.pppIf.ppp  txState:vector  ETV
attr interpolationmode  sample-hold
attr title  "tx state, vector"
vector 131  CAIN.eNodeB.x2ppp[0].queue  queueLength:vector  ETV
attr interpolationmode  sample-hold
attr title  "queue length, vector"
vector 132  CAIN.eNodeB.x2ppp[0].ppp  txState:vector  ETV
attr interpolationmode  sample-hold
attr title  "tx state, vector"
vector 178  CAIN.eNodeB1.pppIf.queue  queueLength:vector  ETV
attr interpolationmode  sample-hold
attr title  "queue length, vector"
vector 179  CAIN.eNodeB1.pppIf.ppp  txState:vector  ETV
attr interpolationmode  sample-hold
attr title  "tx state, vector"
vector 189  CAIN.eNodeB1.x2ppp[0].queue  queueLength:vector  ETV
attr interpolationmode  sample-hold
attr title  "queue length, vector"
vector 190  CAIN.eNodeB1.x2ppp[0].ppp  txState:vector  ETV
attr interpolationmode  sample-hold
attr title  "tx state, vector"
vector 231  CAIN.ueD2DTx[0].nic.phy  servingCell:vector  ETV
attr source  servingCell
attr title  "ID of the serving eNodeB for the UE, vector"
attr unit  ""
vector 263  CAIN.ueD2DTx[1].nic.phy  servingCell:vector  ETV
attr source  servingCell
attr title  "ID of the serving eNodeB for the UE, vector"
attr unit  ""
vector 295  CAIN.ueD2DTx[2].nic.phy  servingCell:vector  ETV
attr source  servingCell
attr title  "ID of the serving eNodeB for the UE, vector"
attr unit  ""
vector 327  CAIN.ueD2DTx[3].nic.phy  servingCell:vector  ETV
attr source  servingCell
attr title  "ID of the serving eNodeB for the UE, vector"
attr unit  ""
vector 359  CAIN.ueD2DTx[4].nic.phy  servingCell:vector  ETV
attr source  servingCell
attr title  "ID of the serving eNodeB for the UE, vector"
attr unit  ""
vector 391  CAIN.ueD2DTx[5].nic.phy  servingCell:vector  ETV
attr source  servingCell
attr title  "ID of the serving eNodeB for the UE, vector"
attr unit  ""
vector 423  CAIN.ueD2DTx[6].nic.phy  servingCell:vector  ETV
attr source  servingCell
attr title  "ID of the serving eNodeB for the UE, vector"
attr unit  ""
vector 455  CAIN.ueD2DTx[7].nic.phy  servingCell:vector  ETV
attr source  servingCell
attr title  "ID of the serving eNodeB for the UE, vector"
attr unit  ""
vector 487  CAIN.ueD2DTx[8].nic.phy  servingCell:vector  ETV
attr source  servingCell
attr title  "ID of the serving eNodeB for the UE, vector"
attr unit  ""
vector 519  CAIN.ueD2DTx[9].nic.phy  servingCell:vector  ETV
attr source  servingCell
attr title  "ID of the serving eNodeB for the UE, vector"
attr unit  ""
vector 551  CAIN.ueD2DTx[10].nic.phy  servingCell:vector  ETV
attr source  servingCell
attr title  "ID of the serving eNodeB for the UE, vector"
attr unit  ""
vector 583  CAIN.ueD2DTx[11].nic.phy  servingCell:vector  ETV
attr source  servingCell
attr title  "ID of the serving eNodeB for the UE, vector"
attr unit  ""
vector 615  CAIN.ueD2DTx[12].nic.phy  servingCell:vector  ETV
attr source  servingCell
attr title  "ID of the serving eNodeB for the UE, vector"
attr unit  ""
vector 647  CAIN.ueD2DTx[13].nic.phy  servingCell:vector  ETV
attr source  servingCell
attr title  "ID of the serving eNodeB for the UE, vector"
attr unit  ""
vector 679  CAIN.ueD2DTx[14].nic.phy  servingCell:vector  ETV
attr source  servingCell
attr title  "ID of the serving eNodeB for the UE, vector"
attr unit  ""
vector 711  CAIN.ueD2DTx[15].nic.phy  servingCell:vector  ETV
attr source  servingCell
attr title  "ID of the serving eNodeB for the UE, vector"
attr unit  ""
vector 743  CAIN.ueD2DTx[16].nic.phy  servingCell:vector  ETV
attr source  servingCell
attr title  "ID of the serving eNodeB for the UE, vector"
attr unit  ""
vector 775  CAIN.ueD2DTx[17].nic.phy  servingCell:vector  ETV
attr source  servingCell
attr title  "ID of the serving eNodeB for the UE, vector"
attr unit  ""
vector 807  CAIN.ueD2DTx[18].nic.phy  servingCell:vector  ETV
attr source  servingCell
attr title  "ID of the serving eNodeB for the UE, vector"
attr unit  ""
vector 839  CAIN.ueD2DTx[19].nic.phy  servingCell:vector  ETV
attr source  servingCell
attr title  "ID of the serving eNodeB for the UE, vector"
attr unit  ""
vector 863  CAIN.eNodeB.sctp  "Throughput of Association 3"  ETV
vector 885  CAIN.eNodeB1.sctp  "Throughput of Association 4"  ETV
vector 907  CAIN.eNodeB.sctp  "Throughput of Association 1"  ETV
vector 927  CAIN.eNodeB.sctp  "Fast Recovery State 1:10.0.5.2"  ETV
vector 956  CAIN.eNodeB1.sctp  "Throughput of Association 2"  ETV
vector 976  CAIN.eNodeB1.sctp  "Fast Recovery State 2:10.0.5.1"  ETV
vector 128  CAIN.eNodeB.x2ppp[0].queue  rcvdPk:vector(packetBytes)  ETV
attr interpolationmode  none
attr title  "received packets, vector(packetBytes)"
vector 130  CAIN.eNodeB.x2ppp[0].queue  queueingTime:vector  ETV
attr interpolationmode  none
attr title  "queueing time, vector"
vector 186  CAIN.eNodeB1.x2ppp[0].queue  rcvdPk:vector(packetBytes)  ETV
attr interpolationmode  none
attr title  "received packets, vector(packetBytes)"
vector 188  CAIN.eNodeB1.x2ppp[0].queue  queueingTime:vector  ETV
attr interpolationmode  none
attr title  "queueing time, vector"
vector 137  CAIN.eNodeB.x2ppp[0].ppp  rcvdPkFromHL:vector(packetBytes)  ETV
attr interpolationmode  none
attr source  packetReceivedFromUpper
attr title  "packets received from higher layer, vector(packetBytes)"
vector 133  CAIN.eNodeB.x2ppp[0].ppp  txPk:vector(packetBytes)  ETV
attr interpolationmode  none
attr source  packetSentToLower
attr title  "packets transmitted, vector(packetBytes)"
vector 195  CAIN.eNodeB1.x2ppp[0].ppp  rcvdPkFromHL:vector(packetBytes)  ETV
attr interpolationmode  none
attr source  packetReceivedFromUpper
attr title  "packets received from higher layer, vector(packetBytes)"
vector 191  CAIN.eNodeB1.x2ppp[0].ppp  txPk:vector(packetBytes)  ETV
attr interpolationmode  none
attr source  packetSentToLower
attr title  "packets transmitted, vector(packetBytes)"
vector 192  CAIN.eNodeB1.x2ppp[0].ppp  rxPkOk:vector(packetBytes)  ETV
attr interpolationmode  none
attr source  rxPkOk
attr title  "packets received OK, vector(packetBytes)"
vector 196  CAIN.eNodeB1.x2ppp[0].ppp  passedUpPk:vector(packetBytes)  ETV
attr interpolationmode  none
attr source  packetSentToUpper
attr title  "packets passed to higher layer, vector(packetBytes)"
vector 134  CAIN.eNodeB.x2ppp[0].ppp  rxPkOk:vector(packetBytes)  ETV
attr interpolationmode  none
attr source  rxPkOk
attr title  "packets received OK, vector(packetBytes)"
vector 138  CAIN.eNodeB.x2ppp[0].ppp  passedUpPk:vector(packetBytes)  ETV
attr interpolationmode  none
attr source  packetSentToUpper
attr title  "packets passed to higher layer, vector(packetBytes)"
vector 1005  CAIN.eNodeB1.sctp  "Throughput of Association 4"  ETV
vector 882  CAIN.eNodeB1.sctp  "Peer Rwnd 4"  ETV
vector 1025  CAIN.eNodeB1.sctp  "Fast Recovery State 5:10.0.4.1"  ETV
vector 1052  CAIN.eNodeB1.sctp  "Fast Recovery State 5:10.0.2.2"  ETV
vector 1079  CAIN.eNodeB1.sctp  "Fast Recovery State 5:10.0.5.1"  ETV
vector 1108  CAIN.eNodeB.sctp  "Throughput of Association 3"  ETV
vector 860  CAIN.eNodeB.sctp  "Peer Rwnd 3"  ETV
vector 1128  CAIN.eNodeB.sctp  "Fast Recovery State 6:10.0.4.2"  ETV
vector 1155  CAIN.eNodeB.sctp  "Fast Recovery State 6:10.0.3.2"  ETV
vector 1182  CAIN.eNodeB.sctp  "Fast Recovery State 6:10.0.5.2"  ETV
vector 904  CAIN.eNodeB.sctp  "Peer Rwnd 1"  ETV
vector 1209  CAIN.eNodeB.sctp  "Fast Recovery State 1:10.0.4.2"  ETV
vector 1236  CAIN.eNodeB.sctp  "Fast Recovery State 1:10.0.3.2"  ETV
vector 953  CAIN.eNodeB1.sctp  "Peer Rwnd 2"  ETV
vector 1263  CAIN.eNodeB1.sctp  "Fast Recovery State 2:10.0.4.1"  ETV
vector 1290  CAIN.eNodeB1.sctp  "Fast Recovery State 2:10.0.2.2"  ETV
vector 1035  CAIN.eNodeB1.sctp  "Slow Start Threshold 5:10.0.2.2"  ETV
vector 1036  CAIN.eNodeB1.sctp  "Congestion Window 5:10.0.2.2"  ETV
vector 1037  CAIN.eNodeB1.sctp  "Bandwidth 5:10.0.2.2"  ETV
vector 1040  CAIN.eNodeB1.sctp  "HB Sent 5:10.0.2.2"  ETV
vector 1033  CAIN.eNodeB1.sctp  "RTO 5:10.0.2.2"  ETV
vector 1008  CAIN.eNodeB1.sctp  "Slow Start Threshold 5:10.0.4.1"  ETV
vector 1009  CAIN.eNodeB1.sctp  "Congestion Window 5:10.0.4.1"  ETV
vector 1010  CAIN.eNodeB1.sctp  "Bandwidth 5:10.0.4.1"  ETV
vector 1013  CAIN.eNodeB1.sctp  "HB Sent 5:10.0.4.1"  ETV
vector 1006  CAIN.eNodeB1.sctp  "RTO 5:10.0.4.1"  ETV
vector 1062  CAIN.eNodeB1.sctp  "Slow Start Threshold 5:10.0.5.1"  ETV
vector 1063  CAIN.eNodeB1.sctp  "Congestion Window 5:10.0.5.1"  ETV
vector 1064  CAIN.eNodeB1.sctp  "Bandwidth 5:10.0.5.1"  ETV
vector 1060  CAIN.eNodeB1.sctp  "RTO 5:10.0.5.1"  ETV
vector 1138  CAIN.eNodeB.sctp  "Slow Start Threshold 6:10.0.3.2"  ETV
vector 1139  CAIN.eNodeB.sctp  "Congestion Window 6:10.0.3.2"  ETV
vector 1140  CAIN.eNodeB.sctp  "Bandwidth 6:10.0.3.2"  ETV
vector 1143  CAIN.eNodeB.sctp  "HB Sent 6:10.0.3.2"  ETV
vector 1136  CAIN.eNodeB.sctp  "RTO 6:10.0.3.2"  ETV
vector 1111  CAIN.eNodeB.sctp  "Slow Start Threshold 6:10.0.4.2"  ETV
vector 1112  CAIN.eNodeB.sctp  "Congestion Window 6:10.0.4.2"  ETV
vector 1113  CAIN.eNodeB.sctp  "Bandwidth 6:10.0.4.2"  ETV
vector 1116  CAIN.eNodeB.sctp  "HB Sent 6:10.0.4.2"  ETV
vector 1109  CAIN.eNodeB.sctp  "RTO 6:10.0.4.2"  ETV
vector 1165  CAIN.eNodeB.sctp  "Slow Start Threshold 6:10.0.5.2"  ETV
vector 1166  CAIN.eNodeB.sctp  "Congestion Window 6:10.0.5.2"  ETV
vector 1167  CAIN.eNodeB.sctp  "Bandwidth 6:10.0.5.2"  ETV
vector 1163  CAIN.eNodeB.sctp  "RTO 6:10.0.5.2"  ETV
vector 916  CAIN.eNodeB.sctp  "HB ACK Sent 1:10.0.5.2"  ETV
vector 917  CAIN.eNodeB.sctp  "HB Received 1:10.0.5.2"  ETV
vector 965  CAIN.eNodeB1.sctp  "HB ACK Sent 2:10.0.5.1"  ETV
vector 966  CAIN.eNodeB1.sctp  "HB Received 2:10.0.5.1"  ETV
vector 1219  CAIN.eNodeB.sctp  "Slow Start Threshold 1:10.0.3.2"  ETV
vector 1220  CAIN.eNodeB.sctp  "Congestion Window 1:10.0.3.2"  ETV
vector 1221  CAIN.eNodeB.sctp  "Bandwidth 1:10.0.3.2"  ETV
vector 1224  CAIN.eNodeB.sctp  "HB Sent 1:10.0.3.2"  ETV
vector 1217  CAIN.eNodeB.sctp  "RTO 1:10.0.3.2"  ETV
vector 1192  CAIN.eNodeB.sctp  "Slow Start Threshold 1:10.0.4.2"  ETV
vector 1193  CAIN.eNodeB.sctp  "Congestion Window 1:10.0.4.2"  ETV
vector 1194  CAIN.eNodeB.sctp  "Bandwidth 1:10.0.4.2"  ETV
vector 1197  CAIN.eNodeB.sctp  "HB Sent 1:10.0.4.2"  ETV
vector 1190  CAIN.eNodeB.sctp  "RTO 1:10.0.4.2"  ETV
vector 910  CAIN.eNodeB.sctp  "Slow Start Threshold 1:10.0.5.2"  ETV
vector 911  CAIN.eNodeB.sctp  "Congestion Window 1:10.0.5.2"  ETV
vector 912  CAIN.eNodeB.sctp  "Bandwidth 1:10.0.5.2"  ETV
vector 908  CAIN.eNodeB.sctp  "RTO 1:10.0.5.2"  ETV
vector 1273  CAIN.eNodeB1.sctp  "Slow Start Threshold 2:10.0.2.2"  ETV
vector 1274  CAIN.eNodeB1.sctp  "Congestion Window 2:10.0.2.2"  ETV
vector 1275  CAIN.eNodeB1.sctp  "Bandwidth 2:10.0.2.2"  ETV
vector 1278  CAIN.eNodeB1.sctp  "HB Sent 2:10.0.2.2"  ETV
vector 1271  CAIN.eNodeB1.sctp  "RTO 2:10.0.2.2"  ETV
vector 1246  CAIN.eNodeB1.sctp  "Slow Start Threshold 2:10.0.4.1"  ETV
vector 1247  CAIN.eNodeB1.sctp  "Congestion Window 2:10.0.4.1"  ETV
vector 1248  CAIN.eNodeB1.sctp  "Bandwidth 2:10.0.4.1"  ETV
vector 1251  CAIN.eNodeB1.sctp  "HB Sent 2:10.0.4.1"  ETV
vector 1244  CAIN.eNodeB1.sctp  "RTO 2:10.0.4.1"  ETV
vector 959  CAIN.eNodeB1.sctp  "Slow Start Threshold 2:10.0.5.1"  ETV
vector 960  CAIN.eNodeB1.sctp  "Congestion Window 2:10.0.5.1"  ETV
vector 961  CAIN.eNodeB1.sctp  "Bandwidth 2:10.0.5.1"  ETV
vector 957  CAIN.eNodeB1.sctp  "RTO 2:10.0.5.1"  ETV
vector 1173  CAIN.eNodeB.sctp  "HB ACK Received 6:10.0.5.2"  ETV
vector 1164  CAIN.eNodeB.sctp  "RTT 6:10.0.5.2"  ETV
vector 1070  CAIN.eNodeB1.sctp  "HB ACK Received 5:10.0.5.1"  ETV
vector 1061  CAIN.eNodeB1.sctp  "RTT 5:10.0.5.1"  ETV
vector 1171  CAIN.eNodeB.sctp  "HB ACK Sent 6:10.0.5.2"  ETV
vector 1172  CAIN.eNodeB.sctp  "HB Received 6:10.0.5.2"  ETV
vector 1068  CAIN.eNodeB1.sctp  "HB ACK Sent 5:10.0.5.1"  ETV
vector 1069  CAIN.eNodeB1.sctp  "HB Received 5:10.0.5.1"  ETV
vector 967  CAIN.eNodeB1.sctp  "HB ACK Received 2:10.0.5.1"  ETV
vector 958  CAIN.eNodeB1.sctp  "RTT 2:10.0.5.1"  ETV
vector 918  CAIN.eNodeB.sctp  "HB ACK Received 1:10.0.5.2"  ETV
vector 909  CAIN.eNodeB.sctp  "RTT 1:10.0.5.2"  ETV
vector 96  CAIN.eNodeB.nic.mac  receivedPacketFromLowerLayer:vector(packetBytes)  ETV
attr interpolationmode  none
attr source  receivedPacketFromLowerLayer
vector 1305  CAIN.eNodeB.sctp  "SendQueue of Association 6"  ETV
vector 1168  CAIN.eNodeB.sctp  "TSN Sent 6:10.0.5.2"  ETV
vector 1175  CAIN.eNodeB.sctp  "Outstanding Bytes 6:10.0.5.2"  ETV
vector 848  CAIN.eNodeB.sctp  "Outstanding Bytes 3:Total"  ETV
vector 1174  CAIN.eNodeB.sctp  "Queued Sent Bytes 6:10.0.5.2"  ETV
vector 847  CAIN.eNodeB.sctp  "Queued Sent Bytes 3:Total"  ETV
vector 963  CAIN.eNodeB1.sctp  "TSN Received 2:10.0.5.1"  ETV
vector 939  CAIN.eNodeB1.sctp  "Queued Received Bytes 2:Total"  ETV
vector 935  CAIN.eNodeB1.sctp  "Advertised Receiver Window 2"  ETV
vector 944  CAIN.eNodeB1.sctp  "Number of Total Gap Blocks Stored 2"  ETV
vector 945  CAIN.eNodeB1.sctp  "Number of Revokable Gap Blocks Stored 2"  ETV
vector 946  CAIN.eNodeB1.sctp  "Number of Non-Revokable Gap Blocks Stored 2"  ETV
vector 947  CAIN.eNodeB1.sctp  "Number of Duplicate TSNs Stored 2"  ETV
vector 951  CAIN.eNodeB1.sctp  "Length of SACK Sent 2"  ETV
vector 948  CAIN.eNodeB1.sctp  "Number of Revokable Gap Blocks Sent 2"  ETV
vector 949  CAIN.eNodeB1.sctp  "Number of Non-Revokable Gap Blocks Sent 2"  ETV
vector 950  CAIN.eNodeB1.sctp  "Number of Duplicate TSNs Sent 2"  ETV
vector 955  CAIN.eNodeB1.sctp  "End to End Delay of Association 2"  ETV
vector 199  CAIN.eNodeB1.x2App[0].client  rcvdPk:vector(packetBytes)  ETV
attr interpolationmode  none
attr source  rcvdPk
attr title  "packets received, vector(packetBytes)"
vector 1304  CAIN.eNodeB.sctp  "Number of Gap Blocks in Last SACK of Association 6"  ETV
vector 849  CAIN.eNodeB.sctp  "Number of Revokable Gap Blocks in SACK 3"  ETV
vector 850  CAIN.eNodeB.sctp  "Number of Non-Revokable Gap Blocks in SACK 3"  ETV
vector 1185  CAIN.eNodeB.sctp  "TSN Acked CumAck 6:10.0.5.2"  ETV
vector 1151  CAIN.eNodeB.sctp  "Number of Gap Acked Chunks in Last SACK 6:10.0.3.2"  ETV
vector 1152  CAIN.eNodeB.sctp  "Number of Non-Revokable Gap Acked Chunks in Last SACK 6:10.0.3.2"  ETV
vector 1153  CAIN.eNodeB.sctp  "Number of Gap Missed Chunks in Last SACK 6:10.0.3.2"  ETV
vector 1124  CAIN.eNodeB.sctp  "Number of Gap Acked Chunks in Last SACK 6:10.0.4.2"  ETV
vector 1125  CAIN.eNodeB.sctp  "Number of Non-Revokable Gap Acked Chunks in Last SACK 6:10.0.4.2"  ETV
vector 1126  CAIN.eNodeB.sctp  "Number of Gap Missed Chunks in Last SACK 6:10.0.4.2"  ETV
vector 1178  CAIN.eNodeB.sctp  "Number of Gap Acked Chunks in Last SACK 6:10.0.5.2"  ETV
vector 1179  CAIN.eNodeB.sctp  "Number of Non-Revokable Gap Acked Chunks in Last SACK 6:10.0.5.2"  ETV
vector 1180  CAIN.eNodeB.sctp  "Number of Gap Missed Chunks in Last SACK 6:10.0.5.2"  ETV
vector 859  CAIN.eNodeB.sctp  "Arwnd in Last SACK 3"  ETV
vector 1187  CAIN.eNodeB.sctp  "TSN PseudoCumAck 6:10.0.5.2"  ETV
vector 1188  CAIN.eNodeB.sctp  "TSN RTXPseudoCumAck 6:10.0.5.2"  ETV
vector 1181  CAIN.eNodeB.sctp  "Partial Bytes Acked 6:10.0.5.2"  ETV
vector 1333  CAIN.ueD2DTx[13].tcp  tcpRcvQueueBytes  ETV
vector 1320  CAIN.ueD2DTx[13].tcp  "advertised window"  ETV
vector 1319  CAIN.ueD2DTx[13].tcp  "receive window"  ETV
vector 1322  CAIN.ueD2DTx[13].tcp  "sent ack"  ETV
vector 621  CAIN.ueD2DTx[13].nic.pdcpRrc  receivedPacketFromUpperLayer:vector(packetBytes)  ETV
attr interpolationmode  none
attr source  receivedPacketFromUpperLayer
vector 624  CAIN.ueD2DTx[13].nic.pdcpRrc  sentPacketToLowerLayer:vector(packetBytes)  ETV
attr interpolationmode  none
attr source  sentPacketToLowerLayer
vector 625  CAIN.ueD2DTx[13].nic.mac  receivedPacketFromUpperLayer:vector(packetBytes)  ETV
attr interpolationmode  none
attr source  receivedPacketFromUpperLayer
vector 635  CAIN.ueD2DTx[13].nic.mac  CainHopMessageSent:vector  ETV
attr interpolationmode  none
attr title  "# of Sent CAIN hop message, vector"
vector 628  CAIN.ueD2DTx[13].nic.mac  sentPacketToLowerLayer:vector(packetBytes)  ETV
attr interpolationmode  none
attr source  sentPacketToLowerLayer
vector 1357  CAIN.ueD2DTx[19].tcp  tcpRcvQueueBytes  ETV
vector 1344  CAIN.ueD2DTx[19].tcp  "advertised window"  ETV
vector 1343  CAIN.ueD2DTx[19].tcp  "receive window"  ETV
vector 1346  CAIN.ueD2DTx[19].tcp  "sent ack"  ETV
vector 813  CAIN.ueD2DTx[19].nic.pdcpRrc  receivedPacketFromUpperLayer:vector(packetBytes)  ETV
attr interpolationmode  none
attr source  receivedPacketFromUpperLayer
vector 816  CAIN.ueD2DTx[19].nic.pdcpRrc  sentPacketToLowerLayer:vector(packetBytes)  ETV
attr interpolationmode  none
attr source  sentPacketToLowerLayer
vector 817  CAIN.ueD2DTx[19].nic.mac  receivedPacketFromUpperLayer:vector(packetBytes)  ETV
attr interpolationmode  none
attr source  receivedPacketFromUpperLayer
vector 1381  CAIN.ueD2DTx[12].tcp  tcpRcvQueueBytes  ETV
vector 1368  CAIN.ueD2DTx[12].tcp  "advertised window"  ETV
vector 1367  CAIN.ueD2DTx[12].tcp  "receive window"  ETV
vector 1370  CAIN.ueD2DTx[12].tcp  "sent ack"  ETV
vector 589  CAIN.ueD2DTx[12].nic.pdcpRrc  receivedPacketFromUpperLayer:vector(packetBytes)  ETV
attr interpolationmode  none
attr source  receivedPacketFromUpperLayer
vector 592  CAIN.ueD2DTx[12].nic.pdcpRrc  sentPacketToLowerLayer:vector(packetBytes)  ETV
attr interpolationmode  none
attr source  sentPacketToLowerLayer
vector 593  CAIN.ueD2DTx[12].nic.mac  receivedPacketFromUpperLayer:vector(packetBytes)  ETV
attr interpolationmode  none
attr source  receivedPacketFromUpperLayer
vector 603  CAIN.ueD2DTx[12].nic.mac  CainHopMessageSent:vector  ETV
attr interpolationmode  none
attr title  "# of Sent CAIN hop message, vector"
vector 596  CAIN.ueD2DTx[12].nic.mac  sentPacketToLowerLayer:vector(packetBytes)  ETV
attr interpolationmode  none
attr source  sentPacketToLowerLayer
vector 820  CAIN.ueD2DTx[19].nic.mac  sentPacketToLowerLayer:vector(packetBytes)  ETV
attr interpolationmode  none
attr source  sentPacketToLowerLayer
vector 562  CAIN.ueD2DTx[11].nic.mac  receivedPacketFromLowerLayer:vector(packetBytes)  ETV
attr interpolationmode  none
attr source  receivedPacketFromLowerLayer
vector 564  CAIN.ueD2DTx[11].nic.mac  sentPacketToLowerLayer:vector(packetBytes)  ETV
attr interpolationmode  none
attr source  sentPacketToLowerLayer
vector 111  CAIN.eNodeB.nic.mac  racpkt:vector  ETV
attr interpolationmode  none
attr title  "eNB received racpkt message, vector"
vector 112  CAIN.eNodeB.nic.mac  racDistanceSignal:vector  ETV
attr interpolationmode  none
attr title  "Rac distance to enb, vector"
vector 113  CAIN.eNodeB.nic.mac  racServedDevsSignal:vector  ETV
attr interpolationmode  none
attr title  "# of devices served on rac arriavall, vector"
vector 98  CAIN.eNodeB.nic.mac  sentPacketToLowerLayer:vector(packetBytes)  ETV
attr interpolationmode  none
attr source  sentPacketToLowerLayer
vector 690  CAIN.ueD2DTx[15].nic.mac  receivedPacketFromLowerLayer:vector(packetBytes)  ETV
attr interpolationmode  none
attr source  receivedPacketFromLowerLayer
vector 692  CAIN.ueD2DTx[15].nic.mac  sentPacketToLowerLayer:vector(packetBytes)  ETV
attr interpolationmode  none
attr source  sentPacketToLowerLayer
vector 818  CAIN.ueD2DTx[19].nic.mac  receivedPacketFromLowerLayer:vector(packetBytes)  ETV
attr interpolationmode  none
attr source  receivedPacketFromLowerLayer
vector 106  CAIN.eNodeB.nic.mac  DistanceSignal:vector  ETV
attr interpolationmode  none
attr title  "Distance to enb, vector"
vector 101  CAIN.eNodeB.nic.mac  CainHopMessage:vector  ETV
attr interpolationmode  none
attr title  "eNB received CAIN hop message, vector"
vector 697  CAIN.ueD2DTx[15].nic.mac  DropedHopMessage:vector  ETV
attr interpolationmode  none
attr title  "Droped Hop CAIN message due to RB not available, vector"
vector 819  CAIN.ueD2DTx[19].nic.mac  sentPacketToUpperLayer:vector(packetBytes)  ETV
attr interpolationmode  none
attr source  sentPacketToUpperLayer
vector 115  CAIN.eNodeB.nic.phy  averageCqiUlvect:vector  ETV
attr source  averageCqiUlvect
attr title  "Average Cqi reported in UL, vector"
attr unit  cqi
vector 1405  CAIN.ueD2DTx[11].tcp  tcpRcvQueueBytes  ETV
vector 1392  CAIN.ueD2DTx[11].tcp  "advertised window"  ETV
vector 1391  CAIN.ueD2DTx[11].tcp  "receive window"  ETV
vector 1394  CAIN.ueD2DTx[11].tcp  "sent ack"  ETV
vector 557  CAIN.ueD2DTx[11].nic.pdcpRrc  receivedPacketFromUpperLayer:vector(packetBytes)  ETV
attr interpolationmode  none
attr source  receivedPacketFromUpperLayer
vector 560  CAIN.ueD2DTx[11].nic.pdcpRrc  sentPacketToLowerLayer:vector(packetBytes)  ETV
attr interpolationmode  none
attr source  sentPacketToLowerLayer
vector 561  CAIN.ueD2DTx[11].nic.mac  receivedPacketFromUpperLayer:vector(packetBytes)  ETV
attr interpolationmode  none
attr source  receivedPacketFromUpperLayer
vector 99  CAIN.eNodeB.nic.mac  measuredItbs:vector  ETV
attr source  measuredItbs
attr title  "TBS index, vector"
attr unit  ""
vector 570  CAIN.ueD2DTx[11].nic.mac  CainMessageSent:vector  ETV
attr interpolationmode  none
attr title  "# of Sent CAIN message, vector"
vector 434  CAIN.ueD2DTx[7].nic.mac  receivedPacketFromLowerLayer:vector(packetBytes)  ETV
attr interpolationmode  none
attr source  receivedPacketFromLowerLayer
vector 436  CAIN.ueD2DTx[7].nic.mac  sentPacketToLowerLayer:vector(packetBytes)  ETV
attr interpolationmode  none
attr source  sentPacketToLowerLayer
vector 100  CAIN.eNodeB.nic.mac  CainMessage:vector  ETV
attr interpolationmode  none
attr title  "eNB received CAIN message, vector"
vector 1429  CAIN.ueD2DTx[7].tcp  tcpRcvQueueBytes  ETV
vector 1416  CAIN.ueD2DTx[7].tcp  "advertised window"  ETV
vector 1415  CAIN.ueD2DTx[7].tcp  "receive window"  ETV
vector 1418  CAIN.ueD2DTx[7].tcp  "sent ack"  ETV
vector 429  CAIN.ueD2DTx[7].nic.pdcpRrc  receivedPacketFromUpperLayer:vector(packetBytes)  ETV
attr interpolationmode  none
attr source  receivedPacketFromUpperLayer
vector 432  CAIN.ueD2DTx[7].nic.pdcpRrc  sentPacketToLowerLayer:vector(packetBytes)  ETV
attr interpolationmode  none
attr source  sentPacketToLowerLayer
vector 433  CAIN.ueD2DTx[7].nic.mac  receivedPacketFromUpperLayer:vector(packetBytes)  ETV
attr interpolationmode  none
attr source  receivedPacketFromUpperLayer
vector 440  CAIN.ueD2DTx[7].nic.mac  DropedCainMessage:vector  ETV
attr interpolationmode  none
attr title  "Droped CAIN message due to RB not available, vector"
vector 1453  CAIN.ueD2DTx[6].tcp  tcpRcvQueueBytes  ETV
vector 1440  CAIN.ueD2DTx[6].tcp  "advertised window"  ETV
vector 1439  CAIN.ueD2DTx[6].tcp  "receive window"  ETV
vector 1442  CAIN.ueD2DTx[6].tcp  "sent ack"  ETV
vector 397  CAIN.ueD2DTx[6].nic.pdcpRrc  receivedPacketFromUpperLayer:vector(packetBytes)  ETV
attr interpolationmode  none
attr source  receivedPacketFromUpperLayer
vector 400  CAIN.ueD2DTx[6].nic.pdcpRrc  sentPacketToLowerLayer:vector(packetBytes)  ETV
attr interpolationmode  none
attr source  sentPacketToLowerLayer
vector 401  CAIN.ueD2DTx[6].nic.mac  receivedPacketFromUpperLayer:vector(packetBytes)  ETV
attr interpolationmode  none
attr source  receivedPacketFromUpperLayer
vector 411  CAIN.ueD2DTx[6].nic.mac  CainHopMessageSent:vector  ETV
attr interpolationmode  none
attr title  "# of Sent CAIN hop message, vector"
vector 404  CAIN.ueD2DTx[6].nic.mac  sentPacketToLowerLayer:vector(packetBytes)  ETV
attr interpolationmode  none
attr source  sentPacketToLowerLayer
vector 97  CAIN.eNodeB.nic.mac  sentPacketToUpperLayer:vector(packetBytes)  ETV
attr interpolationmode  none
attr source  sentPacketToUpperLayer
vector 92  CAIN.eNodeB.nic.pdcpRrc  receivedPacketFromLowerLayer:vector(packetBytes)  ETV
attr interpolationmode  none
attr source  receivedPacketFromLowerLayer
vector 93  CAIN.eNodeB.nic.pdcpRrc  sentPacketToUpperLayer:vector(packetBytes)  ETV
attr interpolationmode  none
attr source  sentPacketToUpperLayer
vector 86  CAIN.eNodeB.udp  sentPk:vector(packetBytes)  ETV
attr interpolationmode  none
attr source  sentPk
attr title  "packets sent, vector(packetBytes)"
vector 145  CAIN.eNodeB1.udp  rcvdPk:vector(packetBytes)  ETV
attr interpolationmode  none
attr source  rcvdPk
attr title  "packets received, vector(packetBytes)"
vector 146  CAIN.eNodeB1.udp  passedUpPk:vector(count)  ETV
attr interpolationmode  none
attr title  "packets passed up, vector(count)"
vector 435  CAIN.ueD2DTx[7].nic.mac  sentPacketToUpperLayer:vector(packetBytes)  ETV
attr interpolationmode  none
attr source  sentPacketToUpperLayer
vector 108  CAIN.eNodeB.nic.mac  ServedDevs:vector  ETV
attr interpolationmode  none
attr title  "# of devices served on cain forwarding, vector"
vector 109  CAIN.eNodeB.nic.mac  ServedHopDevs:vector  ETV
attr interpolationmode  none
attr title  "# of devices served on hop forwarding, vector"
vector 571  CAIN.ueD2DTx[11].nic.mac  CainHopMessageSent:vector  ETV
attr interpolationmode  none
attr title  "# of Sent CAIN hop message, vector"
vector 1477  CAIN.ueD2DTx[2].tcp  tcpRcvQueueBytes  ETV
vector 1464  CAIN.ueD2DTx[2].tcp  "advertised window"  ETV
vector 1463  CAIN.ueD2DTx[2].tcp  "receive window"  ETV
vector 1466  CAIN.ueD2DTx[2].tcp  "sent ack"  ETV
vector 269  CAIN.ueD2DTx[2].nic.pdcpRrc  receivedPacketFromUpperLayer:vector(packetBytes)  ETV
attr interpolationmode  none
attr source  receivedPacketFromUpperLayer
vector 272  CAIN.ueD2DTx[2].nic.pdcpRrc  sentPacketToLowerLayer:vector(packetBytes)  ETV
attr interpolationmode  none
attr source  sentPacketToLowerLayer
vector 273  CAIN.ueD2DTx[2].nic.mac  receivedPacketFromUpperLayer:vector(packetBytes)  ETV
attr interpolationmode  none
attr source  receivedPacketFromUpperLayer
vector 276  CAIN.ueD2DTx[2].nic.mac  sentPacketToLowerLayer:vector(packetBytes)  ETV
attr interpolationmode  none
attr source  sentPacketToLowerLayer
vector 498  CAIN.ueD2DTx[9].nic.mac  receivedPacketFromLowerLayer:vector(packetBytes)  ETV
attr interpolationmode  none
attr source  receivedPacketFromLowerLayer
vector 500  CAIN.ueD2DTx[9].nic.mac  sentPacketToLowerLayer:vector(packetBytes)  ETV
attr interpolationmode  none
attr source  sentPacketToLowerLayer
vector 1501  CAIN.ueD2DTx[10].tcp  tcpRcvQueueBytes  ETV
vector 1488  CAIN.ueD2DTx[10].tcp  "advertised window"  ETV
vector 1487  CAIN.ueD2DTx[10].tcp  "receive window"  ETV
vector 1490  CAIN.ueD2DTx[10].tcp  "sent ack"  ETV
vector 525  CAIN.ueD2DTx[10].nic.pdcpRrc  receivedPacketFromUpperLayer:vector(packetBytes)  ETV
attr interpolationmode  none
attr source  receivedPacketFromUpperLayer
vector 528  CAIN.ueD2DTx[10].nic.pdcpRrc  sentPacketToLowerLayer:vector(packetBytes)  ETV
attr interpolationmode  none
attr source  sentPacketToLowerLayer
vector 529  CAIN.ueD2DTx[10].nic.mac  receivedPacketFromUpperLayer:vector(packetBytes)  ETV
attr interpolationmode  none
attr source  receivedPacketFromUpperLayer
vector 1525  CAIN.ueD2DTx[14].tcp  tcpRcvQueueBytes  ETV
vector 1512  CAIN.ueD2DTx[14].tcp  "advertised window"  ETV
vector 1511  CAIN.ueD2DTx[14].tcp  "receive window"  ETV
vector 1514  CAIN.ueD2DTx[14].tcp  "sent ack"  ETV
vector 653  CAIN.ueD2DTx[14].nic.pdcpRrc  receivedPacketFromUpperLayer:vector(packetBytes)  ETV
attr interpolationmode  none
attr source  receivedPacketFromUpperLayer
vector 656  CAIN.ueD2DTx[14].nic.pdcpRrc  sentPacketToLowerLayer:vector(packetBytes)  ETV
attr interpolationmode  none
attr source  sentPacketToLowerLayer
vector 657  CAIN.ueD2DTx[14].nic.mac  receivedPacketFromUpperLayer:vector(packetBytes)  ETV
attr interpolationmode  none
attr source  receivedPacketFromUpperLayer
vector 539  CAIN.ueD2DTx[10].nic.mac  CainHopMessageSent:vector  ETV
attr interpolationmode  none
attr title  "# of Sent CAIN hop message, vector"
vector 532  CAIN.ueD2DTx[10].nic.mac  sentPacketToLowerLayer:vector(packetBytes)  ETV
attr interpolationmode  none
attr source  sentPacketToLowerLayer
vector 667  CAIN.ueD2DTx[14].nic.mac  CainHopMessageSent:vector  ETV
attr interpolationmode  none
attr title  "# of Sent CAIN hop message, vector"
vector 660  CAIN.ueD2DTx[14].nic.mac  sentPacketToLowerLayer:vector(packetBytes)  ETV
attr interpolationmode  none
attr source  sentPacketToLowerLayer
vector 274  CAIN.ueD2DTx[2].nic.mac  receivedPacketFromLowerLayer:vector(packetBytes)  ETV
attr interpolationmode  none
attr source  receivedPacketFromLowerLayer
vector 275  CAIN.ueD2DTx[2].nic.mac  sentPacketToUpperLayer:vector(packetBytes)  ETV
attr interpolationmode  none
attr source  sentPacketToUpperLayer
vector 1549  CAIN.ueD2DTx[4].tcp  tcpRcvQueueBytes  ETV
vector 1536  CAIN.ueD2DTx[4].tcp  "advertised window"  ETV
vector 1535  CAIN.ueD2DTx[4].tcp  "receive window"  ETV
vector 1538  CAIN.ueD2DTx[4].tcp  "sent ack"  ETV
vector 333  CAIN.ueD2DTx[4].nic.pdcpRrc  receivedPacketFromUpperLayer:vector(packetBytes)  ETV
attr interpolationmode  none
attr source  receivedPacketFromUpperLayer
vector 336  CAIN.ueD2DTx[4].nic.pdcpRrc  sentPacketToLowerLayer:vector(packetBytes)  ETV
attr interpolationmode  none
attr source  sentPacketToLowerLayer
vector 337  CAIN.ueD2DTx[4].nic.mac  receivedPacketFromUpperLayer:vector(packetBytes)  ETV
attr interpolationmode  none
attr source  receivedPacketFromUpperLayer
vector 347  CAIN.ueD2DTx[4].nic.mac  CainHopMessageSent:vector  ETV
attr interpolationmode  none
attr title  "# of Sent CAIN hop message, vector"
vector 340  CAIN.ueD2DTx[4].nic.mac  sentPacketToLowerLayer:vector(packetBytes)  ETV
attr interpolationmode  none
attr source  sentPacketToLowerLayer
vector 1573  CAIN.ueD2DTx[8].tcp  tcpRcvQueueBytes  ETV
vector 1560  CAIN.ueD2DTx[8].tcp  "advertised window"  ETV
vector 1559  CAIN.ueD2DTx[8].tcp  "receive window"  ETV
vector 1562  CAIN.ueD2DTx[8].tcp  "sent ack"  ETV
vector 461  CAIN.ueD2DTx[8].nic.pdcpRrc  receivedPacketFromUpperLayer:vector(packetBytes)  ETV
attr interpolationmode  none
attr source  receivedPacketFromUpperLayer
vector 464  CAIN.ueD2DTx[8].nic.pdcpRrc  sentPacketToLowerLayer:vector(packetBytes)  ETV
attr interpolationmode  none
attr source  sentPacketToLowerLayer
vector 465  CAIN.ueD2DTx[8].nic.mac  receivedPacketFromUpperLayer:vector(packetBytes)  ETV
attr interpolationmode  none
attr source  receivedPacketFromUpperLayer
vector 468  CAIN.ueD2DTx[8].nic.mac  sentPacketToLowerLayer:vector(packetBytes)  ETV
attr interpolationmode  none
attr source  sentPacketToLowerLayer
vector 1597  CAIN.ueD2DTx[9].tcp  tcpRcvQueueBytes  ETV
vector 1584  CAIN.ueD2DTx[9].tcp  "advertised window"  ETV
vector 1583  CAIN.ueD2DTx[9].tcp  "receive window"  ETV
vector 1586  CAIN.ueD2DTx[9].tcp  "sent ack"  ETV
vector 493  CAIN.ueD2DTx[9].nic.pdcpRrc  receivedPacketFromUpperLayer:vector(packetBytes)  ETV
attr interpolationmode  none
attr source  receivedPacketFromUpperLayer
vector 496  CAIN.ueD2DTx[9].nic.pdcpRrc  sentPacketToLowerLayer:vector(packetBytes)  ETV
attr interpolationmode  none
attr source  sentPacketToLowerLayer
vector 497  CAIN.ueD2DTx[9].nic.mac  receivedPacketFromUpperLayer:vector(packetBytes)  ETV
attr interpolationmode  none
attr source  receivedPacketFromUpperLayer
vector 506  CAIN.ueD2DTx[9].nic.mac  CainMessageSent:vector  ETV
attr interpolationmode  none
attr title  "# of Sent CAIN message, vector"
vector 466  CAIN.ueD2DTx[8].nic.mac  receivedPacketFromLowerLayer:vector(packetBytes)  ETV
attr interpolationmode  none
attr source  receivedPacketFromLowerLayer
vector 1621  CAIN.ueD2DTx[15].tcp  tcpRcvQueueBytes  ETV
vector 1608  CAIN.ueD2DTx[15].tcp  "advertised window"  ETV
vector 1607  CAIN.ueD2DTx[15].tcp  "receive window"  ETV
vector 1610  CAIN.ueD2DTx[15].tcp  "sent ack"  ETV
vector 685  CAIN.ueD2DTx[15].nic.pdcpRrc  receivedPacketFromUpperLayer:vector(packetBytes)  ETV
attr interpolationmode  none
attr source  receivedPacketFromUpperLayer
vector 688  CAIN.ueD2DTx[15].nic.pdcpRrc  sentPacketToLowerLayer:vector(packetBytes)  ETV
attr interpolationmode  none
attr source  sentPacketToLowerLayer
vector 689  CAIN.ueD2DTx[15].nic.mac  receivedPacketFromUpperLayer:vector(packetBytes)  ETV
attr interpolationmode  none
attr source  receivedPacketFromUpperLayer
vector 467  CAIN.ueD2DTx[8].nic.mac  sentPacketToUpperLayer:vector(packetBytes)  ETV
attr interpolationmode  none
attr source  sentPacketToUpperLayer
vector 1645  CAIN.ueD2DTx[17].tcp  tcpRcvQueueBytes  ETV
vector 1632  CAIN.ueD2DTx[17].tcp  "advertised window"  ETV
vector 1631  CAIN.ueD2DTx[17].tcp  "receive window"  ETV
vector 1634  CAIN.ueD2DTx[17].tcp  "sent ack"  ETV
vector 749  CAIN.ueD2DTx[17].nic.pdcpRrc  receivedPacketFromUpperLayer:vector(packetBytes)  ETV
attr interpolationmode  none
attr source  receivedPacketFromUpperLayer
vector 752  CAIN.ueD2DTx[17].nic.pdcpRrc  sentPacketToLowerLayer:vector(packetBytes)  ETV
attr interpolationmode  none
attr source  sentPacketToLowerLayer
vector 753  CAIN.ueD2DTx[17].nic.mac  receivedPacketFromUpperLayer:vector(packetBytes)  ETV
attr interpolationmode  none
attr source  receivedPacketFromUpperLayer
vector 1669  CAIN.ueD2DTx[0].tcp  tcpRcvQueueBytes  ETV
vector 1656  CAIN.ueD2DTx[0].tcp  "advertised window"  ETV
vector 1655  CAIN.ueD2DTx[0].tcp  "receive window"  ETV
vector 1658  CAIN.ueD2DTx[0].tcp  "sent ack"  ETV
vector 205  CAIN.ueD2DTx[0].nic.pdcpRrc  receivedPacketFromUpperLayer:vector(packetBytes)  ETV
attr interpolationmode  none
attr source  receivedPacketFromUpperLayer
vector 208  CAIN.ueD2DTx[0].nic.pdcpRrc  sentPacketToLowerLayer:vector(packetBytes)  ETV
attr interpolationmode  none
attr source  sentPacketToLowerLayer
vector 209  CAIN.ueD2DTx[0].nic.mac  receivedPacketFromUpperLayer:vector(packetBytes)  ETV
attr interpolationmode  none
attr source  receivedPacketFromUpperLayer
vector 219  CAIN.ueD2DTx[0].nic.mac  CainHopMessageSent:vector  ETV
attr interpolationmode  none
attr title  "# of Sent CAIN hop message, vector"
vector 212  CAIN.ueD2DTx[0].nic.mac  sentPacketToLowerLayer:vector(packetBytes)  ETV
attr interpolationmode  none
attr source  sentPacketToLowerLayer
vector 763  CAIN.ueD2DTx[17].nic.mac  CainHopMessageSent:vector  ETV
attr interpolationmode  none
attr title  "# of Sent CAIN hop message, vector"
vector 756  CAIN.ueD2DTx[17].nic.mac  sentPacketToLowerLayer:vector(packetBytes)  ETV
attr interpolationmode  none
attr source  sentPacketToLowerLayer
vector 691  CAIN.ueD2DTx[15].nic.mac  sentPacketToUpperLayer:vector(packetBytes)  ETV
attr interpolationmode  none
attr source  sentPacketToUpperLayer
vector 149  CAIN.eNodeB1.nic.pdcpRrc  receivedPacketFromUpperLayer:vector(packetBytes)  ETV
attr interpolationmode  none
attr source  receivedPacketFromUpperLayer
vector 152  CAIN.eNodeB1.nic.pdcpRrc  sentPacketToLowerLayer:vector(packetBytes)  ETV
attr interpolationmode  none
attr source  sentPacketToLowerLayer
vector 1301  CAIN.eNodeB1.sctp  "SendQueue of Association 5"  ETV
vector 1065  CAIN.eNodeB1.sctp  "TSN Sent 5:10.0.5.1"  ETV
vector 1072  CAIN.eNodeB1.sctp  "Outstanding Bytes 5:10.0.5.1"  ETV
vector 870  CAIN.eNodeB1.sctp  "Outstanding Bytes 4:Total"  ETV
vector 1071  CAIN.eNodeB1.sctp  "Queued Sent Bytes 5:10.0.5.1"  ETV
vector 869  CAIN.eNodeB1.sctp  "Queued Sent Bytes 4:Total"  ETV
vector 153  CAIN.eNodeB1.nic.mac  receivedPacketFromUpperLayer:vector(packetBytes)  ETV
attr interpolationmode  none
attr source  receivedPacketFromUpperLayer
vector 914  CAIN.eNodeB.sctp  "TSN Received 1:10.0.5.2"  ETV
vector 890  CAIN.eNodeB.sctp  "Queued Received Bytes 1:Total"  ETV
vector 886  CAIN.eNodeB.sctp  "Advertised Receiver Window 1"  ETV
vector 895  CAIN.eNodeB.sctp  "Number of Total Gap Blocks Stored 1"  ETV
vector 896  CAIN.eNodeB.sctp  "Number of Revokable Gap Blocks Stored 1"  ETV
vector 897  CAIN.eNodeB.sctp  "Number of Non-Revokable Gap Blocks Stored 1"  ETV
vector 898  CAIN.eNodeB.sctp  "Number of Duplicate TSNs Stored 1"  ETV
vector 902  CAIN.eNodeB.sctp  "Length of SACK Sent 1"  ETV
vector 899  CAIN.eNodeB.sctp  "Number of Revokable Gap Blocks Sent 1"  ETV
vector 900  CAIN.eNodeB.sctp  "Number of Non-Revokable Gap Blocks Sent 1"  ETV
vector 901  CAIN.eNodeB.sctp  "Number of Duplicate TSNs Sent 1"  ETV
vector 906  CAIN.eNodeB.sctp  "End to End Delay of Association 1"  ETV
vector 141  CAIN.eNodeB.x2App[0].client  rcvdPk:vector(packetBytes)  ETV
attr interpolationmode  none
attr source  rcvdPk
attr title  "packets received, vector(packetBytes)"
vector 1300  CAIN.eNodeB1.sctp  "Number of Gap Blocks in Last SACK of Association 5"  ETV
vector 871  CAIN.eNodeB1.sctp  "Number of Revokable Gap Blocks in SACK 4"  ETV
vector 872  CAIN.eNodeB1.sctp  "Number of Non-Revokable Gap Blocks in SACK 4"  ETV
vector 1082  CAIN.eNodeB1.sctp  "TSN Acked CumAck 5:10.0.5.1"  ETV
vector 1048  CAIN.eNodeB1.sctp  "Number of Gap Acked Chunks in Last SACK 5:10.0.2.2"  ETV
vector 1049  CAIN.eNodeB1.sctp  "Number of Non-Revokable Gap Acked Chunks in Last SACK 5:10.0.2.2"  ETV
vector 1050  CAIN.eNodeB1.sctp  "Number of Gap Missed Chunks in Last SACK 5:10.0.2.2"  ETV
vector 1021  CAIN.eNodeB1.sctp  "Number of Gap Acked Chunks in Last SACK 5:10.0.4.1"  ETV
vector 1022  CAIN.eNodeB1.sctp  "Number of Non-Revokable Gap Acked Chunks in Last SACK 5:10.0.4.1"  ETV
vector 1023  CAIN.eNodeB1.sctp  "Number of Gap Missed Chunks in Last SACK 5:10.0.4.1"  ETV
vector 1075  CAIN.eNodeB1.sctp  "Number of Gap Acked Chunks in Last SACK 5:10.0.5.1"  ETV
vector 1076  CAIN.eNodeB1.sctp  "Number of Non-Revokable Gap Acked Chunks in Last SACK 5:10.0.5.1"  ETV
vector 1077  CAIN.eNodeB1.sctp  "Number of Gap Missed Chunks in Last SACK 5:10.0.5.1"  ETV
vector 881  CAIN.eNodeB1.sctp  "Arwnd in Last SACK 4"  ETV
vector 1084  CAIN.eNodeB1.sctp  "TSN PseudoCumAck 5:10.0.5.1"  ETV
vector 1085  CAIN.eNodeB1.sctp  "TSN RTXPseudoCumAck 5:10.0.5.1"  ETV
vector 1078  CAIN.eNodeB1.sctp  "Partial Bytes Acked 5:10.0.5.1"  ETV
vector 1693  CAIN.ueD2DTx[1].tcp  tcpRcvQueueBytes  ETV
vector 1680  CAIN.ueD2DTx[1].tcp  "advertised window"  ETV
vector 1679  CAIN.ueD2DTx[1].tcp  "receive window"  ETV
vector 1682  CAIN.ueD2DTx[1].tcp  "sent ack"  ETV
vector 237  CAIN.ueD2DTx[1].nic.pdcpRrc  receivedPacketFromUpperLayer:vector(packetBytes)  ETV
attr interpolationmode  none
attr source  receivedPacketFromUpperLayer
vector 240  CAIN.ueD2DTx[1].nic.pdcpRrc  sentPacketToLowerLayer:vector(packetBytes)  ETV
attr interpolationmode  none
attr source  sentPacketToLowerLayer
vector 241  CAIN.ueD2DTx[1].nic.mac  receivedPacketFromUpperLayer:vector(packetBytes)  ETV
attr interpolationmode  none
attr source  receivedPacketFromUpperLayer
vector 251  CAIN.ueD2DTx[1].nic.mac  CainHopMessageSent:vector  ETV
attr interpolationmode  none
attr title  "# of Sent CAIN hop message, vector"
vector 244  CAIN.ueD2DTx[1].nic.mac  sentPacketToLowerLayer:vector(packetBytes)  ETV
attr interpolationmode  none
attr source  sentPacketToLowerLayer
vector 117  CAIN.eNodeB.pppIf.queue  rcvdPk:vector(packetBytes)  ETV
attr interpolationmode  none
attr title  "received packets, vector(packetBytes)"
vector 119  CAIN.eNodeB.pppIf.queue  queueingTime:vector  ETV
attr interpolationmode  none
attr title  "queueing time, vector"
vector 126  CAIN.eNodeB.pppIf.ppp  rcvdPkFromHL:vector(packetBytes)  ETV
attr interpolationmode  none
attr source  packetReceivedFromUpper
attr title  "packets received from higher layer, vector(packetBytes)"
vector 122  CAIN.eNodeB.pppIf.ppp  txPk:vector(packetBytes)  ETV
attr interpolationmode  none
attr source  packetSentToLower
attr title  "packets transmitted, vector(packetBytes)"
vector 59  CAIN.pgw.ppp[0].ppp  rxPkOk:vector(packetBytes)  ETV
attr interpolationmode  none
attr source  rxPkOk
attr title  "packets received OK, vector(packetBytes)"
vector 63  CAIN.pgw.ppp[0].ppp  passedUpPk:vector(packetBytes)  ETV
attr interpolationmode  none
attr source  packetSentToUpper
attr title  "packets passed to higher layer, vector(packetBytes)"
vector 44  CAIN.pgw.udp  rcvdPk:vector(packetBytes)  ETV
attr interpolationmode  none
attr source  rcvdPk
attr title  "packets received, vector(packetBytes)"
vector 45  CAIN.pgw.udp  passedUpPk:vector(count)  ETV
attr interpolationmode  none
attr title  "packets passed up, vector(count)"
vector 43  CAIN.pgw.udp  sentPk:vector(packetBytes)  ETV
attr interpolationmode  none
attr source  sentPk
attr title  "packets sent, vector(packetBytes)"
vector 64  CAIN.pgw.ppp[1].queue  rcvdPk:vector(packetBytes)  ETV
attr interpolationmode  none
attr title  "received packets, vector(packetBytes)"
vector 66  CAIN.pgw.ppp[1].queue  queueingTime:vector  ETV
attr interpolationmode  none
attr title  "queueing time, vector"
vector 73  CAIN.pgw.ppp[1].ppp  rcvdPkFromHL:vector(packetBytes)  ETV
attr interpolationmode  none
attr source  packetReceivedFromUpper
attr title  "packets received from higher layer, vector(packetBytes)"
vector 69  CAIN.pgw.ppp[1].ppp  txPk:vector(packetBytes)  ETV
attr interpolationmode  none
attr source  packetSentToLower
attr title  "packets transmitted, vector(packetBytes)"
vector 181  CAIN.eNodeB1.pppIf.ppp  rxPkOk:vector(packetBytes)  ETV
attr interpolationmode  none
attr source  rxPkOk
attr title  "packets received OK, vector(packetBytes)"
vector 185  CAIN.eNodeB1.pppIf.ppp  passedUpPk:vector(packetBytes)  ETV
attr interpolationmode  none
attr source  packetSentToUpper
attr title  "packets passed to higher layer, vector(packetBytes)"
vector 1717  CAIN.ueD2DTx[5].tcp  tcpRcvQueueBytes  ETV
vector 1704  CAIN.ueD2DTx[5].tcp  "advertised window"  ETV
vector 1703  CAIN.ueD2DTx[5].tcp  "receive window"  ETV
vector 1706  CAIN.ueD2DTx[5].tcp  "sent ack"  ETV
vector 365  CAIN.ueD2DTx[5].nic.pdcpRrc  receivedPacketFromUpperLayer:vector(packetBytes)  ETV
attr interpolationmode  none
attr source  receivedPacketFromUpperLayer
vector 368  CAIN.ueD2DTx[5].nic.pdcpRrc  sentPacketToLowerLayer:vector(packetBytes)  ETV
attr interpolationmode  none
attr source  sentPacketToLowerLayer
vector 369  CAIN.ueD2DTx[5].nic.mac  receivedPacketFromUpperLayer:vector(packetBytes)  ETV
attr interpolationmode  none
attr source  receivedPacketFromUpperLayer
vector 379  CAIN.ueD2DTx[5].nic.mac  CainHopMessageSent:vector  ETV
attr interpolationmode  none
attr title  "# of Sent CAIN hop message, vector"
vector 372  CAIN.ueD2DTx[5].nic.mac  sentPacketToLowerLayer:vector(packetBytes)  ETV
attr interpolationmode  none
attr source  sentPacketToLowerLayer
vector 154  CAIN.eNodeB1.nic.mac  receivedPacketFromLowerLayer:vector(packetBytes)  ETV
attr interpolationmode  none
attr source  receivedPacketFromLowerLayer
vector 1741  CAIN.ueD2DTx[3].tcp  tcpRcvQueueBytes  ETV
vector 1728  CAIN.ueD2DTx[3].tcp  "advertised window"  ETV
vector 1727  CAIN.ueD2DTx[3].tcp  "receive window"  ETV
vector 1730  CAIN.ueD2DTx[3].tcp  "sent ack"  ETV
vector 301  CAIN.ueD2DTx[3].nic.pdcpRrc  receivedPacketFromUpperLayer:vector(packetBytes)  ETV
attr interpolationmode  none
attr source  receivedPacketFromUpperLayer
vector 304  CAIN.ueD2DTx[3].nic.pdcpRrc  sentPacketToLowerLayer:vector(packetBytes)  ETV
attr interpolationmode  none
attr source  sentPacketToLowerLayer
vector 305  CAIN.ueD2DTx[3].nic.mac  receivedPacketFromUpperLayer:vector(packetBytes)  ETV
attr interpolationmode  none
attr source  receivedPacketFromUpperLayer
vector 308  CAIN.ueD2DTx[3].nic.mac  sentPacketToLowerLayer:vector(packetBytes)  ETV
attr interpolationmode  none
attr source  sentPacketToLowerLayer
vector 169  CAIN.eNodeB1.nic.mac  racpkt:vector  ETV
attr interpolationmode  none
attr title  "eNB received racpkt message, vector"
vector 170  CAIN.eNodeB1.nic.mac  racDistanceSignal:vector  ETV
attr interpolationmode  none
attr title  "Rac distance to enb, vector"
vector 171  CAIN.eNodeB1.nic.mac  racServedDevsSignal:vector  ETV
attr interpolationmode  none
attr title  "# of devices served on rac arriavall, vector"
vector 156  CAIN.eNodeB1.nic.mac  sentPacketToLowerLayer:vector(packetBytes)  ETV
attr interpolationmode  none
attr source  sentPacketToLowerLayer
vector 306  CAIN.ueD2DTx[3].nic.mac  receivedPacketFromLowerLayer:vector(packetBytes)  ETV
attr interpolationmode  none
attr source  receivedPacketFromLowerLayer
vector 1765  CAIN.ueD2DTx[16].tcp  tcpRcvQueueBytes  ETV
vector 1752  CAIN.ueD2DTx[16].tcp  "advertised window"  ETV
vector 1751  CAIN.ueD2DTx[16].tcp  "receive window"  ETV
vector 1754  CAIN.ueD2DTx[16].tcp  "sent ack"  ETV
vector 717  CAIN.ueD2DTx[16].nic.pdcpRrc  receivedPacketFromUpperLayer:vector(packetBytes)  ETV
attr interpolationmode  none
attr source  receivedPacketFromUpperLayer
vector 720  CAIN.ueD2DTx[16].nic.pdcpRrc  sentPacketToLowerLayer:vector(packetBytes)  ETV
attr interpolationmode  none
attr source  sentPacketToLowerLayer
vector 721  CAIN.ueD2DTx[16].nic.mac  receivedPacketFromUpperLayer:vector(packetBytes)  ETV
attr interpolationmode  none
attr source  receivedPacketFromUpperLayer
vector 731  CAIN.ueD2DTx[16].nic.mac  CainHopMessageSent:vector  ETV
attr interpolationmode  none
attr title  "# of Sent CAIN hop message, vector"
vector 724  CAIN.ueD2DTx[16].nic.mac  sentPacketToLowerLayer:vector(packetBytes)  ETV
attr interpolationmode  none
attr source  sentPacketToLowerLayer
vector 658  CAIN.ueD2DTx[14].nic.mac  receivedPacketFromLowerLayer:vector(packetBytes)  ETV
attr interpolationmode  none
attr source  receivedPacketFromLowerLayer
vector 626  CAIN.ueD2DTx[13].nic.mac  receivedPacketFromLowerLayer:vector(packetBytes)  ETV
attr interpolationmode  none
attr source  receivedPacketFromLowerLayer
vector 1789  CAIN.ueD2DTx[18].tcp  tcpRcvQueueBytes  ETV
vector 1776  CAIN.ueD2DTx[18].tcp  "advertised window"  ETV
vector 1775  CAIN.ueD2DTx[18].tcp  "receive window"  ETV
vector 1778  CAIN.ueD2DTx[18].tcp  "sent ack"  ETV
vector 781  CAIN.ueD2DTx[18].nic.pdcpRrc  receivedPacketFromUpperLayer:vector(packetBytes)  ETV
attr interpolationmode  none
attr source  receivedPacketFromUpperLayer
vector 784  CAIN.ueD2DTx[18].nic.pdcpRrc  sentPacketToLowerLayer:vector(packetBytes)  ETV
attr interpolationmode  none
attr source  sentPacketToLowerLayer
vector 785  CAIN.ueD2DTx[18].nic.mac  receivedPacketFromUpperLayer:vector(packetBytes)  ETV
attr interpolationmode  none
attr source  receivedPacketFromUpperLayer
vector 795  CAIN.ueD2DTx[18].nic.mac  CainHopMessageSent:vector  ETV
attr interpolationmode  none
attr title  "# of Sent CAIN hop message, vector"
vector 788  CAIN.ueD2DTx[18].nic.mac  sentPacketToLowerLayer:vector(packetBytes)  ETV
attr interpolationmode  none
attr source  sentPacketToLowerLayer
vector 602  CAIN.ueD2DTx[12].nic.mac  CainMessageSent:vector  ETV
attr interpolationmode  none
attr title  "# of Sent CAIN message, vector"
vector 627  CAIN.ueD2DTx[13].nic.mac  sentPacketToUpperLayer:vector(packetBytes)  ETV
attr interpolationmode  none
attr source  sentPacketToUpperLayer
vector 173  CAIN.eNodeB1.nic.phy  averageCqiUlvect:vector  ETV
attr source  averageCqiUlvect
attr title  "Average Cqi reported in UL, vector"
attr unit  cqi
vector 155  CAIN.eNodeB1.nic.mac  sentPacketToUpperLayer:vector(packetBytes)  ETV
attr interpolationmode  none
attr source  sentPacketToUpperLayer
vector 157  CAIN.eNodeB1.nic.mac  measuredItbs:vector  ETV
attr source  measuredItbs
attr title  "TBS index, vector"
attr unit  ""
vector 150  CAIN.eNodeB1.nic.pdcpRrc  receivedPacketFromLowerLayer:vector(packetBytes)  ETV
attr interpolationmode  none
attr source  receivedPacketFromLowerLayer
vector 151  CAIN.eNodeB1.nic.pdcpRrc  sentPacketToUpperLayer:vector(packetBytes)  ETV
attr interpolationmode  none
attr source  sentPacketToUpperLayer
vector 402  CAIN.ueD2DTx[6].nic.mac  receivedPacketFromLowerLayer:vector(packetBytes)  ETV
attr interpolationmode  none
attr source  receivedPacketFromLowerLayer
vector 403  CAIN.ueD2DTx[6].nic.mac  sentPacketToUpperLayer:vector(packetBytes)  ETV
attr interpolationmode  none
attr source  sentPacketToUpperLayer
vector 538  CAIN.ueD2DTx[10].nic.mac  CainMessageSent:vector  ETV
attr interpolationmode  none
attr title  "# of Sent CAIN message, vector"
vector 666  CAIN.ueD2DTx[14].nic.mac  CainMessageSent:vector  ETV
attr interpolationmode  none
attr title  "# of Sent CAIN message, vector"
vector 594  CAIN.ueD2DTx[12].nic.mac  receivedPacketFromLowerLayer:vector(packetBytes)  ETV
attr interpolationmode  none
attr source  receivedPacketFromLowerLayer
vector 499  CAIN.ueD2DTx[9].nic.mac  sentPacketToUpperLayer:vector(packetBytes)  ETV
attr interpolationmode  none
attr source  sentPacketToUpperLayer
vector 762  CAIN.ueD2DTx[17].nic.mac  CainMessageSent:vector  ETV
attr interpolationmode  none
attr title  "# of Sent CAIN message, vector"
vector 307  CAIN.ueD2DTx[3].nic.mac  sentPacketToUpperLayer:vector(packetBytes)  ETV
attr interpolationmode  none
attr source  sentPacketToUpperLayer
1108	150	0.0000001228	0
1219	235	0.0000006304	65535
1220	235	0.0000006304	8940
1221	235	0.0000006304	0.3725
1217	235	0.0000006304	3
1224	235	0.0000006304	1
1236	163	0.0000003096	0
1192	235	0.0000006304	65535
1193	235	0.0000006304	8940
1194	235	0.0000006304	0.3725
1190	235	0.0000006304	3
1197	235	0.0000006304	1
1209	163	0.0000003096	0
910	235	0.0000006304	65535
911	235	0.0000006304	8940
912	235	0.0000006304	0.3725
908	235	0.0000006304	3
908	302	0.0000008564	1
909	302	0.0000008564	2.26e-07
914	3890	0.0570000972	2000
914	3909	0.0570004484	2001
914	3909	0.0570004484	2002
914	3909	0.0570004484	2003
914	3909	0.0570004484	2004
914	3909	0.0570004484	2005
914	3909	0.0570004484	2006
914	3909	0.0570004484	2007
914	3909	0.0570004484	2008
914	3909	0.0570004484	2009
914	3909	0.0570004484	2010
914	3909	0.0570004484	2011
914	14327	0.2570021596	2012
914	14327	0.2570021596	2013
914	14327	0.2570021596	2014
914	14327	0.2570021596	2015
914	14327	0.2570021596	2016
914	14327	0.2570021596	2017
914	14327	0.2570021596	2018
914	14327	0.2570021596	2019
914	14327	0.2570021596	2020
914	14327	0.2570021596	2021
914	14327	0.2570021596	2022
914	14327	0.2570021596	2023
914	14327	0.2570021596	2024
914	14327	0.2570021596	2025
914	14327	0.2570021596	2026
914	14327	0.2570021596	2027
914	14327	0.2570021596	2028
914	14327	0.2570021596	2029
914	14327	0.2570021596	2030
914	14327	0.2570021596	2031
914	14327	0.2570021596	2032
914	14327	0.2570021596	2033
914	14327	0.2570021596	2034
914	14327	0.2570021596	2035
914	14327	0.2570021596	2036
914	14327	0.2570021596	2037
914	14327	0.2570021596	2038
914	14327	0.2570021596	2039
914	14327	0.2570021596	2040
914	14327	0.2570021596	2041
914	14327	0.2570021596	2042
914	14327	0.2570021596	2043
914	14327	0.2570021596	2044
914	14327	0.2570021596	2045
914	14327	0.2570021596	2046
914	14327	0.2570021596	2047
914	14327	0.2570021596	2048
914	14327	0.2570021596	2049
914	14327	0.2570021596	2050
914	14327	0.2570021596	2051
914	14327	0.2570021596	2052
914	14327	0.2570021596	2053
914	14327	0.2570021596	2054
914	14327	0.2570021596	2055
914	14327	0.2570021596	2056
914	14327	0.2570021596	2057
914	14327	0.2570021596	2058
914	14327	0.2570021596	2059
914	14327	0.2570021596	2060
914	14327	0.2570021596	2061
914	14327	0.2570021596	2062
914	14327	0.2570021596	2063
914	14327	0.2570021596	2064
914	14327	0.2570021596	2065
914	14327	0.2570021596	2066
914	14327	0.2570021596	2067
914	14327	0.2570021596	2068
914	14327	0.2570021596	2069
914	14327	0.2570021596	2070
914	14327	0.2570021596	2071
914	14327	0.2570021596	2072
914	14327	0.2570021596	2073
914	14327	0.2570021596	2074
914	14327	0.2570021596	2075
914	14327	0.2570021596	2076
914	14327	0.2570021596	2077
914	14327	0.2570021596	2078
914	14327	0.2570021596	2079
914	14327	0.2570021596	2080
914	14327	0.2570021596	2081
914	14327	0.2570021596	2082
914	14327	0.2570021596	2083
914	14327	0.2570021596	2084
914	14327	0.2570021596	2085
914	14327	0.2570021596	2086
914	14327	0.2570021596	2087
914	14327	0.2570021596	2088
914	14327	0.2570021596	2089
914	14327	0.2570021596	2090
914	14327	0.2570021596	2091
914	14327	0.2570021596	2092
914	14327	0.2570021596	2093
914	14327	0.2570021596	2094
914	14327	0.2570021596	2095
914	14327	0.2570021596	2096
914	14327	0.2570021596	2097
914	14327	0.2570021596	2098
914	14327	0.2570021596	2099
914	14327	0.2570021596	2100
914	14327	0.2570021596	2101
914	14327	0.2570021596	2102
914	14327	0.2570021596	2103
914	14327	0.2570021596	2104
914	14327	0.2570021596	2105
914	14327	0.2570021596	2106
914	14327	0.2570021596	2107
917	207	0.000000552	1
917	221	0.000000596	2
916	207	0.000000552	1
916	221	0.000000596	2
918	302	0.0000008564	1
918	308	0.0000009004	2
927	131	0	0
886	3890	0.0570000972	65533
886	14313	0.2570004484	65535
886	24232	0.4570021596	65535
890	3890	0.0570000972	2
890	3893	0.0570000972	2
890	3921	0.0570004484	22
890	3922	0.0570004484	0
890	3923	0.0570004484	0
890	3924	0.0570004484	0
890	3925	0.0570004484	0
890	3926	0.0570004484	0
890	3927	0.0570004484	0
890	3928	0.0570004484	0
890	3929	0.0570004484	0
890	3930	0.0570004484	0
890	3931	0.0570004484	0
890	14313	0.2570004484	0
890	14424	0.2570021596	192
890	14425	0.2570021596	0
890	14426	0.2570021596	0
890	14427	0.2570021596	0
890	14428	0.2570021596	0
890	14429	0.2570021596	0
890	14430	0.2570021596	0
890	14431	0.2570021596	0
890	14432	0.2570021596	0
890	14433	0.2570021596	0
890	14434	0.2570021596	0
890	14435	0.2570021596	0
890	14436	0.2570021596	0
890	14437	0.2570021596	0
890	14438	0.2570021596	0
890	14439	0.2570021596	0
890	14440	0.2570021596	0
890	14441	0.2570021596	0
890	14442	0.2570021596	0
890	14443	0.2570021596	0
890	14444	0.2570021596	0
890	14445	0.2570021596	0
890	14446	0.2570021596	0
890	14447	0.2570021596	0
890	14448	0.2570021596	0
890	14449	0.2570021596	0
890	14450	0.2570021596	0
890	14451	0.2570021596	0
890	14452	0.2570021596	0
890	14453	0.2570021596	0
890	14454	0.2570021596	0
890	14455	0.2570021596	0
890	14456	0.2570021596	0
890	14457	0.2570021596	0
890	14458	0.2570021596	0
890	14459	0.2570021596	0
890	14460	0.2570021596	0
890	14461	0.2570021596	0
890	14462	0.2570021596	0
890	14463	0.2570021596	0
890	14464	0.2570021596	0
890	14465	0.2570021596	0
890	14466	0.2570021596	0
890	14467	0.2570021596	0
890	14468	0.2570021596	0
890	14469	0.2570021596	0
890	14470	0.2570021596	0
890	14471	0.2570021596	0
890	14472	0.2570021596	0
890	14473	0.2570021596	0
890	14474	0.2570021596	0
890	14475	0.2570021596	0
890	14476	0.2570021596	0
890	14477	0.2570021596	0
890	14478	0.2570021596	0
890	14479	0.2570021596	0
890	14480	0.2570021596	0
890	14481	0.2570021596	0
890	14482	0.2570021596	0
890	14483	0.2570021596	0
890	14484	0.2570021596	0
890	14485	0.2570021596	0
890	14486	0.2570021596	0
890	14487	0.2570021596	0
890	14488	0.2570021596	0
890	14489	0.2570021596	0
890	14490	0.2570021596	0
890	14491	0.2570021596	0
890	14492	0.2570021596	0
890	14493	0.2570021596	0
890	14494	0.2570021596	0
890	14495	0.2570021596	0
890	14496	0.2570021596	0
890	14497	0.2570021596	0
890	14498	0.2570021596	0
890	14499	0.2570021596	0
890	14500	0.2570021596	0
890	14501	0.2570021596	0
890	14502	0.2570021596	0
890	14503	0.2570021596	0
890	14504	0.2570021596	0
890	14505	0.2570021596	0
890	14506	0.2570021596	0
890	14507	0.2570021596	0
890	14508	0.2570021596	0
890	14509	0.2570021596	0
890	14510	0.2570021596	0
890	14511	0.2570021596	0
890	14512	0.2570021596	0
890	14513	0.2570021596	0
890	14514	0.2570021596	0
890	14515	0.2570021596	0
890	14516	0.2570021596	0
890	14517	0.2570021596	0
890	14518	0.2570021596	0
890	14519	0.2570021596	0
890	24232	0.4570021596	0
895	3890	0.0570000972	0
895	14313	0.2570004484	0
895	24232	0.4570021596	0
896	3890	0.0570000972	0
896	14313	0.2570004484	0
896	24232	0.4570021596	0
897	3890	0.0570000972	0
897	14313	0.2570004484	0
897	24232	0.4570021596	0
898	3890	0.0570000972	0
898	14313	0.2570004484	0
898	24232	0.4570021596	0
899	3890	0.0570000972	0
899	14313	0.2570004484	0
899	24232	0.4570021596	0
900	3890	0.0570000972	0
900	14313	0.2570004484	0
900	24232	0.4570021596	0
901	3890	0.0570000972	0
901	14313	0.2570004484	0
901	24232	0.4570021596	0
902	3890	0.0570000972	16
902	14313	0.2570004484	16
902	24232	0.4570021596	16
904	163	0.0000003096	65535
906	3893	0.0570000972	9.72e-08
906	3921	0.0570004484	2.572e-07
906	3921	0.0570004484	2.572e-07
906	3921	0.0570004484	2.572e-07
906	3921	0.0570004484	2.572e-07
906	3921	0.0570004484	2.572e-07
906	3921	0.0570004484	2.572e-07
906	3921	0.0570004484	2.572e-07
906	3921	0.0570004484	2.572e-07
906	3921	0.0570004484	2.572e-07
906	3921	0.0570004484	2.572e-07
906	3921	0.0570004484	2.572e-07
906	14424	0.2570021596	1.6172e-06
906	14424	0.2570021596	1.6172e-06
906	14424	0.2570021596	1.6172e-06
906	14424	0.2570021596	1.6172e-06
906	14424	0.2570021596	1.6172e-06
906	14424	0.2570021596	1.6172e-06
906	14424	0.2570021596	1.6172e-06
906	14424	0.2570021596	1.6172e-06
906	14424	0.2570021596	1.6172e-06
906	14424	0.2570021596	1.6172e-06
906	14424	0.2570021596	1.6172e-06
906	14424	0.2570021596	1.6172e-06
906	14424	0.2570021596	1.6172e-06
906	14424	0.2570021596	1.6172e-06
906	14424	0.2570021596	1.6172e-06
906	14424	0.2570021596	1.6172e-06
906	14424	0.2570021596	1.6172e-06
906	14424	0.2570021596	1.6172e-06
906	14424	0.2570021596	1.6172e-06
906	14424	0.2570021596	1.6172e-06
906	14424	0.2570021596	1.6172e-06
906	14424	0.2570021596	1.6172e-06
906	14424	0.2570021596	1.6172e-06
906	14424	0.2570021596	1.6172e-06
906	14424	0.2570021596	1.6172e-06
906	14424	0.2570021596	1.6172e-06
906	14424	0.2570021596	1.6172e-06
906	14424	0.2570021596	1.6172e-06
906	14424	0.2570021596	1.6172e-06
906	14424	0.2570021596	1.6172e-06
906	14424	0.2570021596	1.6172e-06
906	14424	0.2570021596	1.6172e-06
906	14424	0.2570021596	1.6172e-06
906	14424	0.2570021596	1.6172e-06
906	14424	0.2570021596	1.6172e-06
906	14424	0.2570021596	1.6172e-06
906	14424	0.2570021596	1.6172e-06
906	14424	0.2570021596	1.6172e-06
906	14424	0.2570021596	1.6172e-06
906	14424	0.2570021596	1.6172e-06
906	14424	0.2570021596	1.6172e-06
906	14424	0.2570021596	1.6172e-06
906	14424	0.2570021596	1.6172e-06
906	14424	0.2570021596	1.6172e-06
906	14424	0.2570021596	1.6172e-06
906	14424	0.2570021596	1.6172e-06
906	14424	0.2570021596	1.6172e-06
906	14424	0.2570021596	1.6172e-06
906	14424	0.2570021596	1.6172e-06
906	14424	0.2570021596	1.6172e-06
906	14424	0.2570021596	1.6172e-06
906	14424	0.2570021596	1.6172e-06
906	14424	0.2570021596	1.6172e-06
906	14424	0.2570021596	1.6172e-06
906	14424	0.2570021596	1.6172e-06
906	14424	0.2570021596	1.6172e-06
906	14424	0.2570021596	1.6172e-06
906	14424	0.2570021596	1.6172e-06
906	14424	0.2570021596	1.6172e-06
906	14424	0.2570021596	1.6172e-06
906	14424	0.2570021596	1.6172e-06
906	14424	0.2570021596	1.6172e-06
906	14424	0.2570021596	1.6172e-06
906	14424	0.2570021596	1.6172e-06
906	14424	0.2570021596	1.6172e-06
906	14424	0.2570021596	1.6172e-06
906	14424	0.2570021596	1.6172e-06
906	14424	0.2570021596	1.6172e-06
906	14424	0.2570021596	1.6172e-06
906	14424	0.2570021596	1.6172e-06
906	14424	0.2570021596	1.6172e-06
906	14424	0.2570021596	1.6172e-06
906	14424	0.2570021596	1.6172e-06
906	14424	0.2570021596	1.6172e-06
906	14424	0.2570021596	1.6172e-06
906	14424	0.2570021596	1.6172e-06
906	14424	0.2570021596	1.6172e-06
906	14424	0.2570021596	1.6172e-06
906	14424	0.2570021596	1.6172e-06
906	14424	0.2570021596	1.6172e-06
906	14424	0.2570021596	1.6172e-06
906	14424	0.2570021596	1.6172e-06
906	14424	0.2570021596	1.6172e-06
906	14424	0.2570021596	1.6172e-06
906	14424	0.2570021596	1.6172e-06
906	14424	0.2570021596	1.6172e-06
906	14424	0.2570021596	1.6172e-06
906	14424	0.2570021596	1.6172e-06
906	14424	0.2570021596	1.6172e-06
906	14424	0.2570021596	1.6172e-06
906	14424	0.2570021596	1.6172e-06
906	14424	0.2570021596	1.6172e-06
906	14424	0.2570021596	1.6172e-06
906	14424	0.2570021596	1.6172e-06
906	14424	0.2570021596	1.6172e-06
906	14424	0.2570021596	1.6172e-06
907	131	0	0
1138	178	0.000000458	65535
1139	178	0.000000458	8940
1140	178	0.000000458	0.3725
1136	178	0.000000458	3
1143	178	0.000000458	1
1151	665	0.0070001912	0
1151	11511	0.2070005424	0
1151	21877	0.4070022536	0
1152	665	0.0070001912	0
1152	11511	0.2070005424	0
1152	21877	0.4070022536	0
1153	665	0.0070001912	0
1153	11511	0.2070005424	0
1153	21877	0.4070022536	0
1155	150	0.0000001228	0
1111	178	0.000000458	65535
1112	178	0.000000458	8940
1113	178	0.000000458	0.3725
1109	178	0.000000458	3
1116	178	0.000000458	1
1124	665	0.0070001912	0
1124	11511	0.2070005424	0
1124	21877	0.4070022536	0
1125	665	0.0070001912	0
1125	11511	0.2070005424	0
1125	21877	0.4070022536	0
1126	665	0.0070001912	0
1126	11511	0.2070005424	0
1126	21877	0.4070022536	0
1128	150	0.0000001228	0
1165	178	0.000000458	65535
1165	59518	1.2070005424	65535
1166	178	0.000000458	8940
1166	59518	1.2070005424	8940
1167	178	0.000000458	0.3725
1167	59518	1.2070005424	23.84
1163	178	0.000000458	3
1163	255	0.0000006744	1
1163	665	0.0070001912	1
1163	11511	0.2070005424	1
1163	21877	0.4070022536	1
1164	255	0.0000006744	2.164e-07
1164	665	0.0070001912	1.912e-07
1164	11511	0.2070005424	0.2000003512
1164	21877	0.4070022536	0.2000017112
1168	609	0.007	2000
1168	665	0.0070001912	2001
1168	665	0.0070001912	2002
1168	665	0.0070001912	2003
1168	665	0.0070001912	2004
1168	665	0.0070001912	2005
1168	665	0.0070001912	2006
1168	665	0.0070001912	2007
1168	665	0.0070001912	2008
1168	665	0.0070001912	2009
1168	665	0.0070001912	2010
1168	665	0.0070001912	2011
1168	11511	0.2070005424	2012
1168	11511	0.2070005424	2013
1168	11511	0.2070005424	2014
1168	11511	0.2070005424	2015
1168	11511	0.2070005424	2016
1168	11511	0.2070005424	2017
1168	11511	0.2070005424	2018
1168	11511	0.2070005424	2019
1168	11511	0.2070005424	2020
1168	11511	0.2070005424	2021
1168	11511	0.2070005424	2022
1168	11511	0.2070005424	2023
1168	11511	0.2070005424	2024
1168	11511	0.2070005424	2025
1168	11511	0.2070005424	2026
1168	11511	0.2070005424	2027
1168	11511	0.2070005424	2028
1168	11511	0.2070005424	2029
1168	11511	0.2070005424	2030
1168	11511	0.2070005424	2031
1168	11511	0.2070005424	2032
1168	11511	0.2070005424	2033
1168	11511	0.2070005424	2034
1168	11511	0.2070005424	2035
1168	11511	0.2070005424	2036
1168	11511	0.2070005424	2037
1168	11511	0.2070005424	2038
1168	11511	0.2070005424	2039
1168	11511	0.2070005424	2040
1168	11511	0.2070005424	2041
1168	11511	0.2070005424	2042
1168	11511	0.2070005424	2043
1168	11511	0.2070005424	2044
1168	11511	0.2070005424	2045
1168	11511	0.2070005424	2046
1168	11511	0.2070005424	2047
1168	11511	0.2070005424	2048
1168	11511	0.2070005424	2049
1168	11511	0.2070005424	2050
1168	11511	0.2070005424	2051
1168	11511	0.2070005424	2052
1168	11511	0.2070005424	2053
1168	11511	0.2070005424	2054
1168	11511	0.2070005424	2055
1168	11511	0.2070005424	2056
1168	11511	0.2070005424	2057
1168	11511	0.2070005424	2058
1168	11511	0.2070005424	2059
1168	11511	0.2070005424	2060
1168	11511	0.2070005424	2061
1168	11511	0.2070005424	2062
1168	11511	0.2070005424	2063
1168	11511	0.2070005424	2064
1168	11511	0.2070005424	2065
1168	11511	0.2070005424	2066
1168	11511	0.2070005424	2067
1168	11511	0.2070005424	2068
1168	11511	0.2070005424	2069
1168	11511	0.2070005424	2070
1168	11511	0.2070005424	2071
1168	11511	0.2070005424	2072
1168	11511	0.2070005424	2073
1168	11511	0.2070005424	2074
1168	11511	0.2070005424	2075
1168	11511	0.2070005424	2076
1168	11511	0.2070005424	2077
1168	11511	0.2070005424	2078
1168	11511	0.2070005424	2079
1168	11511	0.2070005424	2080
1168	11511	0.2070005424	2081
1168	11511	0.2070005424	2082
1168	11511	0.2070005424	2083
1168	11511	0.2070005424	2084
1168	11511	0.2070005424	2085
1168	11511	0.2070005424	2086
1168	11511	0.2070005424	2087
1168	11511	0.2070005424	2088
1168	11511	0.2070005424	2089
1168	11511	0.2070005424	2090
1168	11511	0.2070005424	2091
1168	11511	0.2070005424	2092
1168	11511	0.2070005424	2093
1168	11511	0.2070005424	2094
1168	11511	0.2070005424	2095
1168	11511	0.2070005424	2096
1168	11511	0.2070005424	2097
1168	11511	0.2070005424	2098
1168	11511	0.2070005424	2099
1168	11511	0.2070005424	2100
1168	11511	0.2070005424	2101
1168	11511	0.2070005424	2102
1168	11511	0.2070005424	2103
1168	11511	0.2070005424	2104
1168	11511	0.2070005424	2105
1168	11511	0.2070005424	2106
1168	11511	0.2070005424	2107
1172	273	0.0000007624	1
1172	287	0.0000008064	2
1171	273	0.0000007624	1
1171	287	0.0000008064	2
1173	255	0.0000006744	1
1173	265	0.0000007184	2
1174	609	0.007	2
1174	665	0.0070001912	0
1174	665	0.0070001912	2
1174	665	0.0070001912	4
1174	665	0.0070001912	6
1174	665	0.0070001912	8
1174	665	0.0070001912	10
1174	665	0.0070001912	12
1174	665	0.0070001912	14
1174	665	0.0070001912	16
1174	665	0.0070001912	18
1174	665	0.0070001912	20
1174	665	0.0070001912	22
1174	11511	0.2070005424	20
1174	11511	0.2070005424	18
1174	11511	0.2070005424	16
1174	11511	0.2070005424	14
1174	11511	0.2070005424	12
1174	11511	0.2070005424	10
1174	11511	0.2070005424	8
1174	11511	0.2070005424	6
1174	11511	0.2070005424	4
1174	11511	0.2070005424	2
1174	11511	0.2070005424	0
1174	11511	0.2070005424	2
1174	11511	0.2070005424	4
1174	11511	0.2070005424	6
1174	11511	0.2070005424	8
1174	11511	0.2070005424	10
1174	11511	0.2070005424	12
1174	11511	0.2070005424	14
1174	11511	0.2070005424	16
1174	11511	0.2070005424	18
1174	11511	0.2070005424	20
1174	11511	0.2070005424	22
1174	11511	0.2070005424	24
1174	11511	0.2070005424	26
1174	11511	0.2070005424	28
1174	11511	0.2070005424	30
1174	11511	0.2070005424	32
1174	11511	0.2070005424	34
1174	11511	0.2070005424	36
1174	11511	0.2070005424	38
1174	11511	0.2070005424	40
1174	11511	0.2070005424	42
1174	11511	0.2070005424	44
1174	11511	0.2070005424	46
1174	11511	0.2070005424	48
1174	11511	0.2070005424	50
1174	11511	0.2070005424	52
1174	11511	0.2070005424	54
1174	11511	0.2070005424	56
1174	11511	0.2070005424	58
1174	11511	0.2070005424	60
1174	11511	0.2070005424	62
1174	11511	0.2070005424	64
1174	11511	0.2070005424	66
1174	11511	0.2070005424	68
1174	11511	0.2070005424	70
1174	11511	0.2070005424	72
1174	11511	0.2070005424	74
1174	11511	0.2070005424	76
1174	11511	0.2070005424	78
1174	11511	0.2070005424	80
1174	11511	0.2070005424	82
1174	11511	0.2070005424	84
1174	11511	0.2070005424	86
1174	11511	0.2070005424	88
1174	11511	0.2070005424	90
1174	11511	0.2070005424	92
1174	11511	0.2070005424	94
1174	11511	0.2070005424	96
1174	11511	0.2070005424	98
1174	11511	0.2070005424	100
1174	11511	0.2070005424	102
1174	11511	0.2070005424	104
1174	11511	0.2070005424	106
1174	11511	0.2070005424	108
1174	11511	0.2070005424	110
1174	11511	0.2070005424	112
1174	11511	0.2070005424	114
1174	11511	0.2070005424	116
1174	11511	0.2070005424	118
1174	11511	0.2070005424	120
1174	11511	0.2070005424	122
1174	11511	0.2070005424	124
1174	11511	0.2070005424	126
1174	11511	0.2070005424	128
1174	11511	0.2070005424	130
1174	11511	0.2070005424	132
1174	11511	0.2070005424	134
1174	11511	0.2070005424	136
1174	11511	0.2070005424	138
1174	11511	0.2070005424	140
1174	11511	0.2070005424	142
1174	11511	0.2070005424	144
1174	11511	0.2070005424	146
1174	11511	0.2070005424	148
1174	11511	0.2070005424	150
1174	11511	0.2070005424	152
1174	11511	0.2070005424	154
1174	11511	0.2070005424	156
1174	11511	0.2070005424	158
1174	11511	0.2070005424	160
1174	11511	0.2070005424	162
1174	11511	0.2070005424	164
1174	11511	0.2070005424	166
1174	11511	0.2070005424	168
1174	11511	0.2070005424	170
1174	11511	0.2070005424	172
1174	11511	0.2070005424	174
1174	11511	0.2070005424	176
1174	11511	0.2070005424	178
1174	11511	0.2070005424	180
1174	11511	0.2070005424	182
1174	11511	0.2070005424	184
1174	11511	0.2070005424	186
1174	11511	0.2070005424	188
1174	11511	0.2070005424	190
1174	11511	0.2070005424	192
1174	21877	0.4070022536	190
1174	21877	0.4070022536	188
1174	21877	0.4070022536	186
1174	21877	0.4070022536	184
1174	21877	0.4070022536	182
1174	21877	0.4070022536	180
1174	21877	0.4070022536	178
1174	21877	0.4070022536	176
1174	21877	0.4070022536	174
1174	21877	0.4070022536	172
1174	21877	0.4070022536	170
1174	21877	0.4070022536	168
1174	21877	0.4070022536	166
1174	21877	0.4070022536	164
1174	21877	0.4070022536	162
1174	21877	0.4070022536	160
1174	21877	0.4070022536	158
1174	21877	0.4070022536	156
1174	21877	0.4070022536	154
1174	21877	0.4070022536	152
1174	21877	0.4070022536	150
1174	21877	0.4070022536	148
1174	21877	0.4070022536	146
1174	21877	0.4070022536	144
1174	21877	0.4070022536	142
1174	21877	0.4070022536	140
1174	21877	0.4070022536	138
1174	21877	0.4070022536	136
1174	21877	0.4070022536	134
1174	21877	0.4070022536	132
1174	21877	0.4070022536	130
1174	21877	0.4070022536	128
1174	21877	0.4070022536	126
1174	21877	0.4070022536	124
1174	21877	0.4070022536	122
1174	21877	0.4070022536	120
1174	21877	0.4070022536	118
1174	21877	0.4070022536	116
1174	21877	0.4070022536	114
1174	21877	0.4070022536	112
1174	21877	0.4070022536	110
1174	21877	0.4070022536	108
1174	21877	0.4070022536	106
1174	21877	0.4070022536	104
1174	21877	0.4070022536	102
1174	21877	0.4070022536	100
1174	21877	0.4070022536	98
1174	21877	0.4070022536	96
1174	21877	0.4070022536	94
1174	21877	0.4070022536	92
1174	21877	0.4070022536	90
1174	21877	0.4070022536	88
1174	21877	0.4070022536	86
1174	21877	0.4070022536	84
1174	21877	0.4070022536	82
1174	21877	0.4070022536	80
1174	21877	0.4070022536	78
1174	21877	0.4070022536	76
1174	21877	0.4070022536	74
1174	21877	0.4070022536	72
1174	21877	0.4070022536	70
1174	21877	0.4070022536	68
1174	21877	0.4070022536	66
1174	21877	0.4070022536	64
1174	21877	0.4070022536	62
1174	21877	0.4070022536	60
1174	21877	0.4070022536	58
1174	21877	0.4070022536	56
1174	21877	0.4070022536	54
1174	21877	0.4070022536	52
1174	21877	0.4070022536	50
1174	21877	0.4070022536	48
1174	21877	0.4070022536	46
1174	21877	0.4070022536	44
1174	21877	0.4070022536	42
1174	21877	0.4070022536	40
1174	21877	0.4070022536	38
1174	21877	0.4070022536	36
1174	21877	0.4070022536	34
1174	21877	0.4070022536	32
1174	21877	0.4070022536	30
1174	21877	0.4070022536	28
1174	21877	0.4070022536	26
1174	21877	0.4070022536	24
1174	21877	0.4070022536	22
1174	21877	0.4070022536	20
1174	21877	0.4070022536	18
1174	21877	0.4070022536	16
1174	21877	0.4070022536	14
1174	21877	0.4070022536	12
1174	21877	0.4070022536	10
1174	21877	0.4070022536	8
1174	21877	0.4070022536	6
1174	21877	0.4070022536	4
1174	21877	0.4070022536	2
1174	21877	0.4070022536	0
1175	609	0.007	2
1175	665	0.0070001912	0
1175	665	0.0070001912	2
1175	665	0.0070001912	4
1175	665	0.0070001912	6
1175	665	0.0070001912	8
1175	665	0.0070001912	10
1175	665	0.0070001912	12
1175	665	0.0070001912	14
1175	665	0.0070001912	16
1175	665	0.0070001912	18
1175	665	0.0070001912	20
1175	665	0.0070001912	22
1175	11511	0.2070005424	20
1175	11511	0.2070005424	18
1175	11511	0.2070005424	16
1175	11511	0.2070005424	14
1175	11511	0.2070005424	12
1175	11511	0.2070005424	10
1175	11511	0.2070005424	8
1175	11511	0.2070005424	6
1175	11511	0.2070005424	4
1175	11511	0.2070005424	2
1175	11511	0.2070005424	0
1175	11511	0.2070005424	2
1175	11511	0.2070005424	4
1175	11511	0.2070005424	6
1175	11511	0.2070005424	8
1175	11511	0.2070005424	10
1175	11511	0.2070005424	12
1175	11511	0.2070005424	14
1175	11511	0.2070005424	16
1175	11511	0.2070005424	18
1175	11511	0.2070005424	20
1175	11511	0.2070005424	22
1175	11511	0.2070005424	24
1175	11511	0.2070005424	26
1175	11511	0.2070005424	28
1175	11511	0.2070005424	30
1175	11511	0.2070005424	32
1175	11511	0.2070005424	34
1175	11511	0.2070005424	36
1175	11511	0.2070005424	38
1175	11511	0.2070005424	40
1175	11511	0.2070005424	42
1175	11511	0.2070005424	44
1175	11511	0.2070005424	46
1175	11511	0.2070005424	48
1175	11511	0.2070005424	50
1175	11511	0.2070005424	52
1175	11511	0.2070005424	54
1175	11511	0.2070005424	56
1175	11511	0.2070005424	58
1175	11511	0.2070005424	60
1175	11511	0.2070005424	62
1175	11511	0.2070005424	64
1175	11511	0.2070005424	66
1175	11511	0.2070005424	68
1175	11511	0.2070005424	70
1175	11511	0.2070005424	72
1175	11511	0.2070005424	74
1175	11511	0.2070005424	76
1175	11511	0.2070005424	78
1175	11511	0.2070005424	80
1175	11511	0.2070005424	82
1175	11511	0.2070005424	84
1175	11511	0.2070005424	86
1175	11511	0.2070005424	88
1175	11511	0.2070005424	90
1175	11511	0.2070005424	92
1175	11511	0.2070005424	94
1175	11511	0.2070005424	96
1175	11511	0.2070005424	98
1175	11511	0.2070005424	100
1175	11511	0.2070005424	102
1175	11511	0.2070005424	104
1175	11511	0.2070005424	106
1175	11511	0.2070005424	108
1175	11511	0.2070005424	110
1175	11511	0.2070005424	112
1175	11511	0.2070005424	114
1175	11511	0.2070005424	116
1175	11511	0.2070005424	118
1175	11511	0.2070005424	120
1175	11511	0.2070005424	122
1175	11511	0.2070005424	124
1175	11511	0.2070005424	126
1175	11511	0.2070005424	128
1175	11511	0.2070005424	130
1175	11511	0.2070005424	132
1175	11511	0.2070005424	134
1175	11511	0.2070005424	136
1175	11511	0.2070005424	138
1175	11511	0.2070005424	140
1175	11511	0.2070005424	142
1175	11511	0.2070005424	144
1175	11511	0.2070005424	146
1175	11511	0.2070005424	148
1175	11511	0.2070005424	150
1175	11511	0.2070005424	152
1175	11511	0.2070005424	154
1175	11511	0.2070005424	156
1175	11511	0.2070005424	158
1175	11511	0.2070005424	160
1175	11511	0.2070005424	162
1175	11511	0.2070005424	164
1175	11511	0.2070005424	166
1175	11511	0.2070005424	168
1175	11511	0.2070005424	170
1175	11511	0.2070005424	172
1175	11511	0.2070005424	174
1175	11511	0.2070005424	176
1175	11511	0.2070005424	178
1175	11511	0.2070005424	180
1175	11511	0.2070005424	182
1175	11511	0.2070005424	184
1175	11511	0.2070005424	186
1175	11511	0.2070005424	188
1175	11511	0.2070005424	190
1175	11511	0.2070005424	192
1175	21877	0.4070022536	190
1175	21877	0.4070022536	188
1175	21877	0.4070022536	186
1175	21877	0.4070022536	184
1175	21877	0.4070022536	182
1175	21877	0.4070022536	180
1175	21877	0.4070022536	178
1175	21877	0.4070022536	176
1175	21877	0.4070022536	174
1175	21877	0.4070022536	172
1175	21877	0.4070022536	170
1175	21877	0.4070022536	168
1175	21877	0.4070022536	166
1175	21877	0.4070022536	164
1175	21877	0.4070022536	162
1175	21877	0.4070022536	160
1175	21877	0.4070022536	158
1175	21877	0.4070022536	156
1175	21877	0.4070022536	154
[...]
795	18800	0.342	51
795	19029	0.347	52
795	19278	0.352	53
795	19527	0.357	54
795	19728	0.362	55
795	19977	0.367	56
795	20206	0.372	57
795	20435	0.377	58
795	20684	0.382	59
795	20933	0.387	60
795	21134	0.392	61
795	21383	0.397	62
795	21628	0.402	63
795	21857	0.407	64
795	22114	0.412	65
795	22363	0.417	66
795	22564	0.422	67
795	22813	0.427	68
795	23042	0.432	69
795	23271	0.437	70
795	23520	0.442	71
795	23769	0.447	72
795	23970	0.452	73
795	24219	0.457	74
795	24456	0.462	75
795	24685	0.467	76
795	24934	0.472	77
795	25183	0.477	78
795	25384	0.482	79
795	25633	0.487	80
795	25862	0.492	81
795	26091	0.497	82
795	26356	0.502	83
795	26605	0.507	84
795	26806	0.512	85
795	27055	0.517	86
795	27284	0.522	87
795	27513	0.527	88
795	27762	0.532	89
795	28011	0.537	90
795	28212	0.542	91
795	28461	0.547	92
795	28690	0.552	93
795	28919	0.557	94
795	29168	0.562	95
795	29417	0.567	96
795	29618	0.572	97
795	29867	0.577	98
795	30096	0.582	99
795	30325	0.587	100
795	30574	0.592	101
795	30823	0.597	102
795	31040	0.602	103
795	31289	0.607	104
795	31518	0.612	105
795	31747	0.617	106
795	31996	0.622	107
795	32245	0.627	108
795	32446	0.632	109
795	32695	0.637	110
795	32924	0.642	111
795	33153	0.647	112
795	33402	0.652	113
795	33651	0.657	114
795	33852	0.662	115
795	34101	0.667	116
795	34330	0.672	117
795	34559	0.677	118
795	34808	0.682	119
795	35057	0.687	120
795	35258	0.692	121
795	35507	0.697	122
795	35752	0.702	123
795	35981	0.707	124
795	36230	0.712	125
795	36479	0.717	126
795	36680	0.722	127
795	36929	0.727	128
795	37158	0.732	129
795	37387	0.737	130
795	37636	0.742	131
795	37885	0.747	132
795	38086	0.752	133
795	38335	0.757	134
795	38564	0.762	135
795	38793	0.767	136
795	39042	0.772	137
795	39291	0.777	138
795	39492	0.782	139
795	39741	0.787	140
795	39970	0.792	141
795	40199	0.797	142
795	40464	0.802	143
795	40713	0.807	144
795	40914	0.812	145
795	41163	0.817	146
795	41392	0.822	147
795	41621	0.827	148
795	41870	0.832	149
795	42119	0.837	150
795	42320	0.842	151
795	42569	0.847	152
795	42798	0.852	153
795	43027	0.857	154
795	43276	0.862	155
795	43525	0.867	156
795	43726	0.872	157
795	43975	0.877	158
795	44204	0.882	159
795	44433	0.887	160
795	44682	0.892	161
795	44931	0.897	162
795	45148	0.902	163
795	45397	0.907	164
795	45626	0.912	165
795	45855	0.917	166
795	46104	0.922	167
795	46353	0.927	168
795	46554	0.932	169
795	46803	0.937	170
795	47032	0.942	171
795	47261	0.947	172
795	47510	0.952	173
795	47759	0.957	174
795	47960	0.962	175
795	48209	0.967	176
795	48438	0.972	177
795	48667	0.977	178
795	48916	0.982	179
795	49165	0.987	180
795	49366	0.992	181
795	49615	0.997	182
795	49860	1.002	183
795	50089	1.007	184
795	50338	1.012	185
795	50587	1.017	186
795	50788	1.022	187
795	51037	1.027	188
795	51266	1.032	189
795	51495	1.037	190
795	51744	1.042	191
795	51993	1.047	192
795	52194	1.052	193
795	52443	1.057	194
795	52672	1.062	195
795	52901	1.067	196
795	53150	1.072	197
795	53399	1.077	198
795	53600	1.082	199
795	53849	1.087	200
795	54078	1.092	201
795	54307	1.097	202
795	54572	1.102	203
795	54821	1.107	204
795	55022	1.112	205
795	55271	1.117	206
795	55500	1.122	207
795	55729	1.127	208
795	55978	1.132	209
795	56227	1.137	210
795	56428	1.142	211
795	56677	1.147	212
795	56906	1.152	213
795	57135	1.157	214
795	57384	1.162	215
795	57633	1.167	216
795	57834	1.172	217
795	58083	1.177	218
795	58312	1.182	219
795	58541	1.187	220
795	58790	1.192	221
795	59039	1.197	222
795	59256	1.202	223
795	59505	1.207	224
795	59735	1.212	225
795	59964	1.217	226
795	60213	1.222	227
795	60462	1.227	228
795	60663	1.232	229
795	60912	1.237	230
795	61141	1.242	231
795	61370	1.247	232
795	61619	1.252	233
795	61868	1.257	234
795	62070	1.262	235
795	62319	1.267	236
795	62548	1.272	237
795	62777	1.277	238
795	63026	1.282	239
795	63275	1.287	240
795	63476	1.292	241
795	63725	1.297	242
795	63970	1.302	243
795	64199	1.307	244
795	64448	1.312	245
795	64697	1.317	246
795	64898	1.322	247
795	65147	1.327	248
795	65376	1.332	249
795	65605	1.337	250
795	65854	1.342	251
795	66103	1.347	252
795	66304	1.352	253
795	66553	1.357	254
795	66782	1.362	255
795	67011	1.367	256
795	67260	1.372	257
795	67509	1.377	258
795	67710	1.382	259
795	67959	1.387	260
795	68188	1.392	261
795	68417	1.397	262
795	68682	1.402	263
795	68931	1.407	264
795	69132	1.412	265
795	69381	1.417	266
795	69610	1.422	267
795	69839	1.427	268
795	70088	1.432	269
795	70337	1.437	270
795	70538	1.442	271
795	70787	1.447	272
795	71016	1.452	273
795	71245	1.457	274
795	71494	1.462	275
795	71743	1.467	276
795	71944	1.472	277
795	72193	1.477	278
795	72422	1.482	279
795	72651	1.487	280
795	72900	1.492	281
795	73149	1.497	282
795	73366	1.502	283
795	73615	1.507	284
795	73844	1.512	285
795	74073	1.517	286
795	74322	1.522	287
795	74571	1.527	288
795	74772	1.532	289
795	75021	1.537	290
795	75250	1.542	291
795	75479	1.547	292
795	75728	1.552	293
795	75977	1.557	294
795	76178	1.562	295
795	76427	1.567	296
795	76656	1.572	297
795	76885	1.577	298
795	77134	1.582	299
795	77383	1.587	300
795	77584	1.592	301
795	77833	1.597	302
795	78078	1.602	303
795	78307	1.607	304
795	78556	1.612	305
795	78805	1.617	306
795	79006	1.622	307
795	79255	1.627	308
795	79484	1.632	309
795	79713	1.637	310
795	79962	1.642	311
795	80211	1.647	312
795	80412	1.652	313
795	80661	1.657	314
795	80890	1.662	315
795	81119	1.667	316
795	81368	1.672	317
795	81617	1.677	318
795	81818	1.682	319
795	82067	1.687	320
795	82296	1.692	321
795	82525	1.697	322
795	82790	1.702	323
795	83039	1.707	324
795	83240	1.712	325
795	83489	1.717	326
795	83718	1.722	327
795	83947	1.727	328
795	84196	1.732	329
795	84445	1.737	330
795	84646	1.742	331
795	84895	1.747	332
795	85124	1.752	333
795	85353	1.757	334
795	85602	1.762	335
795	85851	1.767	336
795	86052	1.772	337
795	86301	1.777	338
795	86530	1.782	339
795	86759	1.787	340
795	87008	1.792	341
795	87257	1.797	342
795	87474	1.802	343
795	87723	1.807	344
795	87952	1.812	345
795	88181	1.817	346
795	88430	1.822	347
795	88679	1.827	348
795	88880	1.832	349
795	89129	1.837	350
795	89358	1.842	351
795	89587	1.847	352
795	89836	1.852	353
795	90085	1.857	354
795	90286	1.862	355
795	90535	1.867	356
795	90764	1.872	357
795	90993	1.877	358
795	91242	1.882	359
795	91491	1.887	360
795	91692	1.892	361
795	91941	1.897	362
795	92186	1.902	363
795	92415	1.907	364
795	92664	1.912	365
795	92913	1.917	366
795	93114	1.922	367
795	93363	1.927	368
795	93592	1.932	369
795	93821	1.937	370
795	94070	1.942	371
795	94319	1.947	372
795	94520	1.952	373
795	94769	1.957	374
795	94998	1.962	375
795	95227	1.967	376
795	95476	1.972	377
795	95725	1.977	378
795	95926	1.982	379
795	96175	1.987	380
795	96404	1.992	381
795	96633	1.997	382
795	96898	2.002	383
795	97147	2.007	384
795	97348	2.012	385
795	97597	2.017	386
795	97826	2.022	387
795	98055	2.027	388
795	98304	2.032	389
795	98553	2.037	390
795	98754	2.042	391
795	99003	2.047	392
795	99232	2.052	393
795	99461	2.057	394
795	99710	2.062	395
795	99959	2.067	396
795	100160	2.072	397
795	100409	2.077	398
795	100638	2.082	399
795	100867	2.087	400
795	101116	2.092	401
795	101365	2.097	402
795	101582	2.102	403
795	101831	2.107	404
795	102060	2.112	405
795	102289	2.117	406
795	102538	2.122	407
795	102787	2.127	408
795	102988	2.132	409
795	103237	2.137	410
795	103466	2.142	411
795	103695	2.147	412
795	103944	2.152	413
795	104193	2.157	414
795	104394	2.162	415
795	104643	2.167	416
795	104872	2.172	417
795	105101	2.177	418
795	105350	2.182	419
795	105599	2.187	420
795	105800	2.192	421
795	106049	2.197	422
795	106294	2.202	423
795	106523	2.207	424
795	106772	2.212	425
795	107021	2.217	426
795	107222	2.222	427
795	107471	2.227	428
795	107700	2.232	429
795	107929	2.237	430
795	108178	2.242	431
795	108427	2.247	432
795	108628	2.252	433
795	108877	2.257	434
795	109106	2.262	435
795	109335	2.267	436
795	109584	2.272	437
795	109833	2.277	438
795	110034	2.282	439
795	110283	2.287	440
795	110512	2.292	441
795	110741	2.297	442
795	111006	2.302	443
795	111255	2.307	444
795	111456	2.312	445
795	111705	2.317	446
795	111934	2.322	447
795	112163	2.327	448
795	112412	2.332	449
795	112661	2.337	450
795	112862	2.342	451
795	113111	2.347	452
795	113340	2.352	453
795	113569	2.357	454
795	113818	2.362	455
795	114067	2.367	456
795	114268	2.372	457
795	114517	2.377	458
795	114746	2.382	459
795	114975	2.387	460
795	115224	2.392	461
795	115473	2.397	462
795	115690	2.402	463
795	115939	2.407	464
795	116168	2.412	465
795	116397	2.417	466
795	116646	2.422	467
795	116895	2.427	468
795	117096	2.432	469
795	117345	2.437	470
795	117574	2.442	471
795	117803	2.447	472
795	118052	2.452	473
795	118301	2.457	474
795	118502	2.462	475
795	118751	2.467	476
795	118980	2.472	477
795	119209	2.477	478
795	119458	2.482	479
795	119707	2.487	480
795	119908	2.492	481
795	120157	2.497	482
795	120402	2.502	483
795	120631	2.507	484
795	120880	2.512	485
795	121129	2.517	486
795	121330	2.522	487
795	121579	2.527	488
795	121808	2.532	489
795	122037	2.537	490
795	122286	2.542	491
795	122535	2.547	492
795	122736	2.552	493
795	122985	2.557	494
795	123214	2.562	495
795	123443	2.567	496
795	123692	2.572	497
795	123941	2.577	498
795	124142	2.582	499
795	124391	2.587	500
795	124620	2.592	501
795	124849	2.597	502
795	125114	2.602	503
795	125363	2.607	504
795	125564	2.612	505
795	125813	2.617	506
795	126042	2.622	507
795	126271	2.627	508
795	126520	2.632	509
795	126769	2.637	510
795	126970	2.642	511
795	127219	2.647	512
795	127448	2.652	513
795	127677	2.657	514
795	127926	2.662	515
795	128175	2.667	516
795	128376	2.672	517
795	128625	2.677	518
795	128854	2.682	519
795	129083	2.687	520
795	129332	2.692	521
795	129581	2.697	522
795	129798	2.702	523
795	130047	2.707	524
795	130276	2.712	525
795	130505	2.717	526
795	130754	2.722	527
795	131003	2.727	528
795	131204	2.732	529
795	131453	2.737	530
795	131682	2.742	531
795	131911	2.747	532
795	132160	2.752	533
795	132409	2.757	534
795	132610	2.762	535
795	132859	2.767	536
795	133088	2.772	537
795	133317	2.777	538
795	133566	2.782	539
795	133815	2.787	540
795	134016	2.792	541
795	134265	2.797	542
795	134510	2.802	543
795	134739	2.807	544
795	134988	2.812	545
795	135237	2.817	546
795	135438	2.822	547
795	135687	2.827	548
795	135916	2.832	549
795	136145	2.837	550
795	136394	2.842	551
795	136643	2.847	552
795	136844	2.852	553
795	137093	2.857	554
795	137322	2.862	555
795	137551	2.867	556
795	137800	2.872	557
795	138049	2.877	558
795	138250	2.882	559
795	138499	2.887	560
795	138728	2.892	561
795	138957	2.897	562
795	139222	2.902	563
795	139471	2.907	564
795	139672	2.912	565
795	139921	2.917	566
795	140150	2.922	567
795	140379	2.927	568
795	140628	2.932	569
795	140877	2.937	570
795	141078	2.942	571
795	141327	2.947	572
795	141556	2.952	573
795	141785	2.957	574
795	142034	2.962	575
795	142283	2.967	576
795	142484	2.972	577
795	142733	2.977	578
795	142962	2.982	579
795	143191	2.987	580
795	143440	2.992	581
795	143689	2.997	582
795	143906	3.002	583
795	144155	3.007	584
795	144384	3.012	585
795	144659	3.017	586
795	144961	3.022	587
795	145292	3.027	588
795	145583	3.032	589
795	145926	3.037	590
795	146258	3.042	591
795	146520	3.047	592
795	146839	3.052	593
795	147199	3.057	594
795	147551	3.062	595
795	147889	3.067	596
795	148184	3.072	597
795	148500	3.077	598
795	148820	3.082	599
795	149118	3.087	600
795	149375	3.092	601
795	149673	3.097	602
795	149967	3.102	603
795	150245	3.107	604
795	150545	3.112	605
795	150850	3.117	606
795	151107	3.122	607
795	151412	3.127	608
795	151697	3.132	609
795	151982	3.137	610
795	152287	3.142	611
795	152592	3.147	612
795	152849	3.152	613
795	153154	3.157	614
795	153439	3.162	615
795	153724	3.167	616
795	154029	3.172	617
795	154334	3.177	618
795	154591	3.182	619
795	154896	3.187	620
795	155181	3.192	621
795	155466	3.197	622
795	155787	3.202	623
795	156092	3.207	624
795	156349	3.212	625
795	156654	3.217	626
795	156939	3.222	627
795	157224	3.227	628
795	157529	3.232	629
795	157834	3.237	630
795	158091	3.242	631
795	158396	3.247	632
795	158681	3.252	633
795	158966	3.257	634
795	159271	3.262	635
795	159576	3.267	636
795	159833	3.272	637
795	160138	3.277	638
795	160423	3.282	639
795	160708	3.287	640
795	161013	3.292	641
795	161318	3.297	642
795	161591	3.302	643
795	161896	3.307	644
795	162181	3.312	645
795	162466	3.317	646
795	162771	3.322	647
795	163076	3.327	648
795	163333	3.332	649
795	163638	3.337	650
795	163923	3.342	651
795	164208	3.347	652
795	164513	3.352	653
795	164818	3.357	654
795	165075	3.362	655
795	165380	3.367	656
795	165665	3.372	657
795	165950	3.377	658
795	166255	3.382	659
795	166560	3.387	660
795	166817	3.392	661
795	167122	3.397	662
795	167423	3.402	663
795	167708	3.407	664
795	168013	3.412	665
795	168318	3.417	666
795	168575	3.422	667
795	168880	3.427	668
795	169165	3.432	669
795	169450	3.437	670
795	169755	3.442	671
795	170060	3.447	672
795	170317	3.452	673
795	170622	3.457	674
795	170907	3.462	675
795	171192	3.467	676
795	171497	3.472	677
795	171802	3.477	678
795	172059	3.482	679
795	172364	3.487	680
795	172649	3.492	681
795	172934	3.497	682
795	173255	3.502	683
795	173560	3.507	684
795	173817	3.512	685
795	174122	3.517	686
795	174407	3.522	687
795	174692	3.527	688
795	174997	3.532	689
795	175302	3.537	690
795	175559	3.542	691
795	175864	3.547	692
795	176149	3.552	693
795	176434	3.557	694
795	176739	3.562	695
795	177044	3.567	696
795	177301	3.572	697
795	177606	3.577	698
795	177891	3.582	699
795	178176	3.587	700
795	178481	3.592	701
795	178786	3.597	702
795	179059	3.602	703
795	179364	3.607	704
795	179649	3.612	705
795	179934	3.617	706
795	180239	3.622	707
795	180544	3.627	708
795	180801	3.632	709
795	181106	3.637	710
795	181391	3.642	711
795	181676	3.647	712
795	181981	3.652	713
795	182286	3.657	714
795	182543	3.662	715
795	182848	3.667	716
795	183133	3.672	717
795	183418	3.677	718
795	183723	3.682	719
795	184028	3.687	720
795	184285	3.692	721
795	184590	3.697	722
795	184891	3.702	723
795	185176	3.707	724
795	185481	3.712	725
795	185786	3.717	726
795	186043	3.722	727
795	186348	3.727	728
795	186633	3.732	729
795	186918	3.737	730
795	187223	3.742	731
795	187528	3.747	732
795	187785	3.752	733
795	188090	3.757	734
795	188375	3.762	735
795	188660	3.767	736
795	188965	3.772	737
795	189270	3.777	738
795	189527	3.782	739
795	189832	3.787	740
795	190117	3.792	741
795	190402	3.797	742
807	0	0	1
813	997	0.013169782835	44
813	144463	3.013169782835	44
816	997	0.013169782835	45
816	144463	3.013169782835	45
817	1000	0.013169782835	45
817	1213	0.018	0
817	1475	0.023	0
817	1537	0.024	47
817	144466	3.013169782835	45
817	144723	3.018	0
817	145012	3.023	0
817	145084	3.024	47
818	1130	0.016	0
818	1161	0.017	0
818	1401	0.021	0
818	1443	0.022	0
818	1483	0.023	0
818	1485	0.023	0
818	1803	0.028	0
818	1807	0.028	0
818	1858	0.029	0
818	4124	0.06	0
818	4327	0.062	0
818	4440	0.064	0
818	4536	0.066	0
818	144631	3.016	0
818	144669	3.017	0
818	144923	3.021	0
818	144971	3.022	0
818	145022	3.023	0
818	145024	3.023	0
818	145307	3.027	0
818	145355	3.028	0
818	145359	3.028	0
818	145425	3.029	0
818	147406	3.06	0
818	147617	3.062	0
819	1209	0.018	0
819	1471	0.023	0
819	1533	0.024	0
819	144719	3.018	0
819	145008	3.023	0
819	145080	3.024	0
820	1031	0.014	0
820	1218	0.018	0
820	1300	0.019	0
820	1480	0.023	0
820	1542	0.024	0
820	4124	0.06	0
820	4327	0.062	0
820	4440	0.064	0
820	4536	0.066	0
820	144496	3.014	0
820	144728	3.018	0
820	144782	3.019	0
820	145019	3.023	0
820	145089	3.024	0
820	145307	3.027	0
820	147406	3.06	0
820	147617	3.062	0
839	0	0	1
1319	903	0.012270864309	7504
1319	144397	3.012270864309	7504
1320	903	0.012270864309	7504
1320	144397	3.012270864309	7504
1322	903	0.012270864309	0
1322	144397	3.012270864309	0
1333	903	0.012270864309	0
1333	144397	3.012270864309	0
1343	994	0.013169782835	7504
1343	144460	3.013169782835	7504
1344	994	0.013169782835	7504
1344	144460	3.013169782835	7504
1346	994	0.013169782835	0
1346	144460	3.013169782835	0
1357	994	0.013169782835	0
1357	144460	3.013169782835	0
1367	1002	0.013528948517	7504
1367	144467	3.013528948517	7504
1368	1002	0.013528948517	7504
1368	144467	3.013528948517	7504
1370	1002	0.013528948517	0
1370	144467	3.013528948517	0
1381	1002	0.013528948517	0
1381	144467	3.013528948517	0
1391	1406	0.021843716542	7504
1391	144927	3.021843716542	7504
1392	1406	0.021843716542	7504
1392	144927	3.021843716542	7504
1394	1406	0.021843716542	0
1394	144927	3.021843716542	0
1405	1406	0.021843716542	0
1405	144927	3.021843716542	0
1415	1553	0.024352218178	7504
1415	145103	3.024352218178	7504
1416	1553	0.024352218178	7504
1416	145103	3.024352218178	7504
1418	1553	0.024352218178	0
1418	145103	3.024352218178	0
1429	1553	0.024352218178	0
1429	145103	3.024352218178	0
1439	1654	0.025271030879	7504
1439	145166	3.025271030879	7504
1440	1654	0.025271030879	7504
1440	145166	3.025271030879	7504
1442	1654	0.025271030879	0
1442	145166	3.025271030879	0
1453	1654	0.025271030879	0
1453	145166	3.025271030879	0
1463	2088	0.032546852513	7504
1463	145646	3.032546852513	7504
1464	2088	0.032546852513	7504
1464	145646	3.032546852513	7504
1466	2088	0.032546852513	0
1466	145646	3.032546852513	0
1477	2088	0.032546852513	0
1477	145646	3.032546852513	0
1487	2187	0.034129833705	7504
1487	145755	3.034129833705	7504
1488	2187	0.034129833705	7504
1488	145755	3.034129833705	7504
1490	2187	0.034129833705	0
1490	145755	3.034129833705	0
1501	2187	0.034129833705	0
1501	145755	3.034129833705	0
1511	2195	0.034439526021	7504
1511	145762	3.034439526021	7504
1512	2195	0.034439526021	7504
1512	145762	3.034439526021	7504
1514	2195	0.034439526021	0
1514	145762	3.034439526021	0
1525	2195	0.034439526021	0
1525	145762	3.034439526021	0
1535	2421	0.037261432968	7504
1535	145943	3.037261432968	7504
1536	2421	0.037261432968	7504
1536	145943	3.037261432968	7504
1538	2421	0.037261432968	0
1538	145943	3.037261432968	0
1549	2421	0.037261432968	0
1549	145943	3.037261432968	0
1559	3045	0.047532676856	7504
1559	146535	3.047532676856	7504
1560	3045	0.047532676856	7504
1560	146535	3.047532676856	7504
1562	3045	0.047532676856	0
1562	146535	3.047532676856	0
1573	3045	0.047532676856	0
1573	146535	3.047532676856	0
1583	3116	0.048413756283	7504
1583	146602	3.048413756283	7504
1584	3116	0.048413756283	7504
1584	146602	3.048413756283	7504
1586	3116	0.048413756283	0
1586	146602	3.048413756283	0
1597	3116	0.048413756283	0
1597	146602	3.048413756283	0
1607	3351	0.051566809383	7504
1607	146806	3.051566809383	7504
1608	3351	0.051566809383	7504
1608	146806	3.051566809383	7504
1610	3351	0.051566809383	0
1610	146806	3.051566809383	0
1621	3351	0.051566809383	0
1621	146806	3.051566809383	0
1631	3412	0.05273845314	7504
1631	146858	3.05273845314	7504
1632	3412	0.05273845314	7504
1632	146858	3.05273845314	7504
1634	3412	0.05273845314	0
1634	146858	3.05273845314	0
1645	3412	0.05273845314	0
1645	146858	3.05273845314	0
1655	3420	0.052847558425	7504
1655	146865	3.052847558425	7504
1656	3420	0.052847558425	7504
1656	146865	3.052847558425	7504
1658	3420	0.052847558425	0
1658	146865	3.052847558425	0
1669	3420	0.052847558425	0
1669	146865	3.052847558425	0
1679	3966	0.057084039294	7504
1679	147224	3.057084039294	7504
1680	3966	0.057084039294	7504
1680	147224	3.057084039294	7504
1682	3966	0.057084039294	0
1682	147224	3.057084039294	0
1693	3966	0.057084039294	0
1693	147224	3.057084039294	0
1703	4239	0.061955560849	7504
1703	147518	3.061955560849	7504
1704	4239	0.061955560849	7504
1704	147518	3.061955560849	7504
1706	4239	0.061955560849	0
1706	147518	3.061955560849	0
1717	4239	0.061955560849	0
1717	147518	3.061955560849	0
1727	4443	0.064453871725	7504
1727	147728	3.064453871725	7504
1728	4443	0.064453871725	7504
1728	147728	3.064453871725	7504
1730	4443	0.064453871725	0
1730	147728	3.064453871725	0
1741	4443	0.064453871725	0
1741	147728	3.064453871725	0
1751	5056	0.075361895796	7504
1751	148429	3.075361895796	7504
1752	5056	0.075361895796	7504
1752	148429	3.075361895796	7504
1754	5056	0.075361895796	0
1754	148429	3.075361895796	0
1765	5056	0.075361895796	0
1765	148429	3.075361895796	0
1775	5865	0.091364573385	7504
1775	149346	3.091364573385	7504
1776	5865	0.091364573385	7504
1776	149346	3.091364573385	7504
1778	5865	0.091364573385	0
1778	149346	3.091364573385	0
1789	5865	0.091364573385	0
1789	149346	3.091364573385	0
