version 2
run CAIN-81-20200508-16:33:02-12917
attr configname CAIN
attr datetime 20200508-16:33:02
attr dist 200
attr experiment CAIN
attr extAllocType "\"RANDOM_ALLOC\""
attr inifile omnetpp.ini
attr iterationvars "$numUe=20, $pwr=-50, $dist=200, $mob=\"./movements/RWPRPGM-0.5.movements\", $extAllocType=\"RANDOM_ALLOC\""
attr iterationvars2 "$numUe=20, $pwr=-50, $dist=200, $mob=\"./movements/RWPRPGM-0.5.movements\", $extAllocType=\"RANDOM_ALLOC\", $repetition=1"
attr measurement "$numUe=20, $pwr=-50, $dist=200, $mob=\"./movements/RWPRPGM-0.5.movements\", $extAllocType=\"RANDOM_ALLOC\""
attr mob "\"./movements/RWPRPGM-0.5.movements\""
attr network lte.simulations.networks.CAIN
attr numUe 20
attr processid 12917
attr pwr -50
attr repetition 1
attr replication #1
attr resultdir results
attr runnumber 81
attr seedset 1
param **.**.amcMode "\"AUTO\""
param **.amcMode "\"D2D\""
param **.cainNetwork true
param **.channelControl.alpha 1.0
param **.channelControl.carrierFrequency 2100e+6Hz
param **.channelControl.pMax 10W
param **.d2dCqi 7
param **.deployer.numRbDl 50
param **.deployer.numRbUl 50
param **.distThresh ${dist=200}
param **.fbDelay 1
param **.feedbackComputation "xmldoc(\"config_channel.xml\")"
param **.mobility.constraintAreaMaxX 1000m
param **.mobility.constraintAreaMaxY 1000m
param **.mobility.constraintAreaMaxZ 0m
param **.mobility.constraintAreaMinX 0m
param **.mobility.constraintAreaMinY 0m
param **.mobility.constraintAreaMinZ 0m
param **.nic.phy.channelModel "xmldoc(\"config_channel.xml\")"
param **.numBands 50
param **.pwrThresh "${pwr= -50}"
param **.qtdThresh 3
param **.rbAllocationType "\"localized\""
param **.routingRecorder.enabled false
param **.tcpApp[*].tClose -1s
param **.ueD2DTx[*].mobility.changeAngleBy "normal(0deg, 30deg)"
param **.ueD2DTx[*].mobility.changeInterval "normal(5s, 0.1s)"
param **.ueD2DTx[*].mobility.nodeId -1
param **.ueD2DTx[*].mobility.speed "normal(2mps, 0.01mps)"
param **.ueD2DTx[*].mobility.traceFile "${mob=\"./movements/RWP-0.0.movements\",\"./movements/RWP-0.5.movements\",\"./movements/RPGM-0.0.movements\",\"./movements/RPGM-0.5.movements\",\"./movements/RWPRPGM-0.0.movements\",\"./movements/RWPRPGM-0.5.movements\"}"
param **.ueD2DTx[*].mobilityType "\"BonnMotionMobility\""
param **.usePreconfiguredTxParams false
param *.eNodeB*.numX2Apps 1
param *.eNodeB*.x2App[*].server.localPort "5000 + ancestorIndex(1)"
param *.eNodeB.d2dCapable false
param *.eNodeB.mobility.initFromDisplayString false
param *.eNodeB.mobility.initialX 300m
param *.eNodeB.mobility.initialY 300m
param *.eNodeB.nic.phy.enableD2DCqiReporting true
param *.eNodeB.txPower 19952.62315mw
param *.eNodeB.x2App[0].client.connectAddress "\"eNodeB1%x2ppp0\""
param *.eNodeB1.d2dCapable true
param *.eNodeB1.mobility.initFromDisplayString false
param *.eNodeB1.mobility.initialX 700m
param *.eNodeB1.mobility.initialY 300m
param *.eNodeB1.nic.phy.enableD2DCqiReporting true
param *.eNodeB1.txPower 19952.62315mw
param *.eNodeB1.x2App[0].client.connectAddress "\"eNodeB%x2ppp0\""
param *.extCell[*].bandAllocationType "${extAllocType=\"FULL_ALLOC\",\"RANDOM_ALLOC\",\"CONTIGUOUS_ALLOC\"}"
param *.extCell[*].bandUtilization 0.5
param *.extCell[*].txDirection "\"ANISOTROPIC\""
param *.extCell[*].txPower 20
param *.extCell[0].position_x 100m
param *.extCell[0].position_y 600m
param *.extCell[0].txAngle 315
param *.extCell[1].position_x 600m
param *.extCell[1].position_y 600m
param *.extCell[1].txAngle 225
param *.numExtCells 2
param *.numUeCell 0
param *.numUeD2DRx 1
param *.numUeD2DTx 1
param *.ue*.macCellId 1
param *.ue*.masterId 1
param *.ue*.mobility.initFromDisplayString false
param *.ue*[0].macCellId 1
param *.ue*[0].masterId 1
param *.ue*[0].mobility.initFromDisplayString false
param *.ueD2D*.numTcpApps 1
param *.ueD2D*[*].d2dCapable true
param *.ueD2D*[0].d2dCapable false
param *.ueD2D*[0].numTcpApps 1
param *.ueD2DRx[0].mobility.initialX 310m
param *.ueD2DRx[0].mobility.initialY 350m
param *.ueD2DRx[0].tcpApp[*].localPort 1000
param *.ueD2DRx[0].tcpApp[*].typename "\"TCPSinkApp\""
param *.ueD2DTx*.nic.d2dPeerAddresses "\"ueD2DTx[1]\""
param *.ueD2DTx*.tcpApp[*].connectAddress "\"ueD2DTx[0]\""
param *.ueD2DTx*.tcpApp[*].localAddress "\"ueD2DTx\""
param *.ueD2DTx*.tcpApp[*].localPort 1000
param *.ueD2DTx*.tcpApp[*].sendBytes 1GiB
param *.ueD2DTx*.tcpApp[*].typename "\"TCPSessionApp\""
param *.ueD2DTx*.tcpApp[0].active true
param *.ueD2DTx*.tcpApp[0].connectPort 1000
param *.ueD2DTx*.tcpApp[0].tOpen uniform(0.010s,0.1s)
param *.ueD2DTx*.tcpApp[0].tSend uniform(0.15s,0.5s)
param *.ueD2DTx[0].mobility.initialX 290m
param *.ueD2DTx[0].mobility.initialY 350m
param *.ueD2DTx[0].tcpApp[*].localPort 1000
param *.ueD2DTx[0].tcpApp[*].sendBytes 1GiB
param *.ueD2DTx[0].tcpApp[*].typename "\"TCPSessionApp\""
param *.ueD2DTx[0].tcpApp[0].active true
param *.ueD2DTx[0].tcpApp[0].connectAddress "\"ueD2DRx[0]\""
param *.ueD2DTx[0].tcpApp[0].connectPort 1000
param *.ueD2DTx[0].tcpApp[0].localAddress "\"ueD2DTx[0]\""
param *.ueD2DTx[0].tcpApp[0].tOpen uniform(0.010s,0.1s)
param *.ueD2DTx[0].tcpApp[0].tSend uniform(0.15s,0.5s)
param *.ueD2DTx[1].mobility.initialX 690m
param *.ueD2DTx[1].mobility.initialY 250m

vector 8  CAIN.server.ppp[0].queue  queueLength:vector  ETV
attr interpolationmode  sample-hold
attr title  "queue length, vector"
vector 9  CAIN.server.ppp[0].ppp  txState:vector  ETV
attr interpolationmode  sample-hold
attr title  "tx state, vector"
vector 24  CAIN.router.ppp[0].queue  queueLength:vector  ETV
attr interpolationmode  sample-hold
attr title  "queue length, vector"
vector 25  CAIN.router.ppp[0].ppp  txState:vector  ETV
attr interpolationmode  sample-hold
attr title  "tx state, vector"
vector 35  CAIN.router.ppp[1].queue  queueLength:vector  ETV
attr interpolationmode  sample-hold
attr title  "queue length, vector"
vector 36  CAIN.router.ppp[1].ppp  txState:vector  ETV
attr interpolationmode  sample-hold
attr title  "tx state, vector"
vector 56  CAIN.pgw.ppp[0].queue  queueLength:vector  ETV
attr interpolationmode  sample-hold
attr title  "queue length, vector"
vector 57  CAIN.pgw.ppp[0].ppp  txState:vector  ETV
attr interpolationmode  sample-hold
attr title  "tx state, vector"
vector 67  CAIN.pgw.ppp[1].queue  queueLength:vector  ETV
attr interpolationmode  sample-hold
attr title  "queue length, vector"
vector 68  CAIN.pgw.ppp[1].ppp  txState:vector  ETV
attr interpolationmode  sample-hold
attr title  "tx state, vector"
vector 78  CAIN.pgw.pppInterface.queue  queueLength:vector  ETV
attr interpolationmode  sample-hold
attr title  "queue length, vector"
vector 79  CAIN.pgw.pppInterface.ppp  txState:vector  ETV
attr interpolationmode  sample-hold
attr title  "tx state, vector"
vector 120  CAIN.eNodeB.pppIf.queue  queueLength:vector  ETV
attr interpolationmode  sample-hold
attr title  "queue length, vector"
vector 121  CAIN.eNodeB.pppIf.ppp  txState:vector  ETV
attr interpolationmode  sample-hold
attr title  "tx state, vector"
vector 131  CAIN.eNodeB.x2ppp[0].queue  queueLength:vector  ETV
attr interpolationmode  sample-hold
attr title  "queue length, vector"
vector 132  CAIN.eNodeB.x2ppp[0].ppp  txState:vector  ETV
attr interpolationmode  sample-hold
attr title  "tx state, vector"
vector 178  CAIN.eNodeB1.pppIf.queue  queueLength:vector  ETV
attr interpolationmode  sample-hold
attr title  "queue length, vector"
vector 179  CAIN.eNodeB1.pppIf.ppp  txState:vector  ETV
attr interpolationmode  sample-hold
attr title  "tx state, vector"
vector 189  CAIN.eNodeB1.x2ppp[0].queue  queueLength:vector  ETV
attr interpolationmode  sample-hold
attr title  "queue length, vector"
vector 190  CAIN.eNodeB1.x2ppp[0].ppp  txState:vector  ETV
attr interpolationmode  sample-hold
attr title  "tx state, vector"
vector 231  CAIN.ueD2DTx[0].nic.phy  servingCell:vector  ETV
attr source  servingCell
attr title  "ID of the serving eNodeB for the UE, vector"
attr unit  ""
vector 263  CAIN.ueD2DTx[1].nic.phy  servingCell:vector  ETV
attr source  servingCell
attr title  "ID of the serving eNodeB for the UE, vector"
attr unit  ""
vector 295  CAIN.ueD2DTx[2].nic.phy  servingCell:vector  ETV
attr source  servingCell
attr title  "ID of the serving eNodeB for the UE, vector"
attr unit  ""
vector 327  CAIN.ueD2DTx[3].nic.phy  servingCell:vector  ETV
attr source  servingCell
attr title  "ID of the serving eNodeB for the UE, vector"
attr unit  ""
vector 359  CAIN.ueD2DTx[4].nic.phy  servingCell:vector  ETV
attr source  servingCell
attr title  "ID of the serving eNodeB for the UE, vector"
attr unit  ""
vector 391  CAIN.ueD2DTx[5].nic.phy  servingCell:vector  ETV
attr source  servingCell
attr title  "ID of the serving eNodeB for the UE, vector"
attr unit  ""
vector 423  CAIN.ueD2DTx[6].nic.phy  servingCell:vector  ETV
attr source  servingCell
attr title  "ID of the serving eNodeB for the UE, vector"
attr unit  ""
vector 455  CAIN.ueD2DTx[7].nic.phy  servingCell:vector  ETV
attr source  servingCell
attr title  "ID of the serving eNodeB for the UE, vector"
attr unit  ""
vector 487  CAIN.ueD2DTx[8].nic.phy  servingCell:vector  ETV
attr source  servingCell
attr title  "ID of the serving eNodeB for the UE, vector"
attr unit  ""
vector 519  CAIN.ueD2DTx[9].nic.phy  servingCell:vector  ETV
attr source  servingCell
attr title  "ID of the serving eNodeB for the UE, vector"
attr unit  ""
vector 551  CAIN.ueD2DTx[10].nic.phy  servingCell:vector  ETV
attr source  servingCell
attr title  "ID of the serving eNodeB for the UE, vector"
attr unit  ""
vector 583  CAIN.ueD2DTx[11].nic.phy  servingCell:vector  ETV
attr source  servingCell
attr title  "ID of the serving eNodeB for the UE, vector"
attr unit  ""
vector 615  CAIN.ueD2DTx[12].nic.phy  servingCell:vector  ETV
attr source  servingCell
attr title  "ID of the serving eNodeB for the UE, vector"
attr unit  ""
vector 647  CAIN.ueD2DTx[13].nic.phy  servingCell:vector  ETV
attr source  servingCell
attr title  "ID of the serving eNodeB for the UE, vector"
attr unit  ""
vector 679  CAIN.ueD2DTx[14].nic.phy  servingCell:vector  ETV
attr source  servingCell
attr title  "ID of the serving eNodeB for the UE, vector"
attr unit  ""
vector 711  CAIN.ueD2DTx[15].nic.phy  servingCell:vector  ETV
attr source  servingCell
attr title  "ID of the serving eNodeB for the UE, vector"
attr unit  ""
vector 743  CAIN.ueD2DTx[16].nic.phy  servingCell:vector  ETV
attr source  servingCell
attr title  "ID of the serving eNodeB for the UE, vector"
attr unit  ""
vector 775  CAIN.ueD2DTx[17].nic.phy  servingCell:vector  ETV
attr source  servingCell
attr title  "ID of the serving eNodeB for the UE, vector"
attr unit  ""
vector 807  CAIN.ueD2DTx[18].nic.phy  servingCell:vector  ETV
attr source  servingCell
attr title  "ID of the serving eNodeB for the UE, vector"
attr unit  ""
vector 839  CAIN.ueD2DTx[19].nic.phy  servingCell:vector  ETV
attr source  servingCell
attr title  "ID of the serving eNodeB for the UE, vector"
attr unit  ""
vector 863  CAIN.eNodeB.sctp  "Throughput of Association 3"  ETV
vector 885  CAIN.eNodeB1.sctp  "Throughput of Association 4"  ETV
vector 907  CAIN.eNodeB.sctp  "Throughput of Association 1"  ETV
vector 927  CAIN.eNodeB.sctp  "Fast Recovery State 1:10.0.5.2"  ETV
vector 956  CAIN.eNodeB1.sctp  "Throughput of Association 2"  ETV
vector 976  CAIN.eNodeB1.sctp  "Fast Recovery State 2:10.0.5.1"  ETV
vector 128  CAIN.eNodeB.x2ppp[0].queue  rcvdPk:vector(packetBytes)  ETV
attr interpolationmode  none
attr title  "received packets, vector(packetBytes)"
vector 130  CAIN.eNodeB.x2ppp[0].queue  queueingTime:vector  ETV
attr interpolationmode  none
attr title  "queueing time, vector"
vector 186  CAIN.eNodeB1.x2ppp[0].queue  rcvdPk:vector(packetBytes)  ETV
attr interpolationmode  none
attr title  "received packets, vector(packetBytes)"
vector 188  CAIN.eNodeB1.x2ppp[0].queue  queueingTime:vector  ETV
attr interpolationmode  none
attr title  "queueing time, vector"
vector 137  CAIN.eNodeB.x2ppp[0].ppp  rcvdPkFromHL:vector(packetBytes)  ETV
attr interpolationmode  none
attr source  packetReceivedFromUpper
attr title  "packets received from higher layer, vector(packetBytes)"
vector 133  CAIN.eNodeB.x2ppp[0].ppp  txPk:vector(packetBytes)  ETV
attr interpolationmode  none
attr source  packetSentToLower
attr title  "packets transmitted, vector(packetBytes)"
vector 195  CAIN.eNodeB1.x2ppp[0].ppp  rcvdPkFromHL:vector(packetBytes)  ETV
attr interpolationmode  none
attr source  packetReceivedFromUpper
attr title  "packets received from higher layer, vector(packetBytes)"
vector 191  CAIN.eNodeB1.x2ppp[0].ppp  txPk:vector(packetBytes)  ETV
attr interpolationmode  none
attr source  packetSentToLower
attr title  "packets transmitted, vector(packetBytes)"
vector 192  CAIN.eNodeB1.x2ppp[0].ppp  rxPkOk:vector(packetBytes)  ETV
attr interpolationmode  none
attr source  rxPkOk
attr title  "packets received OK, vector(packetBytes)"
vector 196  CAIN.eNodeB1.x2ppp[0].ppp  passedUpPk:vector(packetBytes)  ETV
attr interpolationmode  none
attr source  packetSentToUpper
attr title  "packets passed to higher layer, vector(packetBytes)"
vector 134  CAIN.eNodeB.x2ppp[0].ppp  rxPkOk:vector(packetBytes)  ETV
attr interpolationmode  none
attr source  rxPkOk
attr title  "packets received OK, vector(packetBytes)"
vector 138  CAIN.eNodeB.x2ppp[0].ppp  passedUpPk:vector(packetBytes)  ETV
attr interpolationmode  none
attr source  packetSentToUpper
attr title  "packets passed to higher layer, vector(packetBytes)"
vector 1005  CAIN.eNodeB1.sctp  "Throughput of Association 4"  ETV
vector 882  CAIN.eNodeB1.sctp  "Peer Rwnd 4"  ETV
vector 1025  CAIN.eNodeB1.sctp  "Fast Recovery State 5:10.0.4.1"  ETV
vector 1052  CAIN.eNodeB1.sctp  "Fast Recovery State 5:10.0.2.2"  ETV
vector 1079  CAIN.eNodeB1.sctp  "Fast Recovery State 5:10.0.5.1"  ETV
vector 1108  CAIN.eNodeB.sctp  "Throughput of Association 3"  ETV
vector 860  CAIN.eNodeB.sctp  "Peer Rwnd 3"  ETV
vector 1128  CAIN.eNodeB.sctp  "Fast Recovery State 6:10.0.4.2"  ETV
vector 1155  CAIN.eNodeB.sctp  "Fast Recovery State 6:10.0.3.2"  ETV
vector 1182  CAIN.eNodeB.sctp  "Fast Recovery State 6:10.0.5.2"  ETV
vector 904  CAIN.eNodeB.sctp  "Peer Rwnd 1"  ETV
vector 1209  CAIN.eNodeB.sctp  "Fast Recovery State 1:10.0.4.2"  ETV
vector 1236  CAIN.eNodeB.sctp  "Fast Recovery State 1:10.0.3.2"  ETV
vector 953  CAIN.eNodeB1.sctp  "Peer Rwnd 2"  ETV
vector 1263  CAIN.eNodeB1.sctp  "Fast Recovery State 2:10.0.4.1"  ETV
vector 1290  CAIN.eNodeB1.sctp  "Fast Recovery State 2:10.0.2.2"  ETV
vector 1035  CAIN.eNodeB1.sctp  "Slow Start Threshold 5:10.0.2.2"  ETV
vector 1036  CAIN.eNodeB1.sctp  "Congestion Window 5:10.0.2.2"  ETV
vector 1037  CAIN.eNodeB1.sctp  "Bandwidth 5:10.0.2.2"  ETV
vector 1040  CAIN.eNodeB1.sctp  "HB Sent 5:10.0.2.2"  ETV
vector 1033  CAIN.eNodeB1.sctp  "RTO 5:10.0.2.2"  ETV
vector 1008  CAIN.eNodeB1.sctp  "Slow Start Threshold 5:10.0.4.1"  ETV
vector 1009  CAIN.eNodeB1.sctp  "Congestion Window 5:10.0.4.1"  ETV
vector 1010  CAIN.eNodeB1.sctp  "Bandwidth 5:10.0.4.1"  ETV
vector 1013  CAIN.eNodeB1.sctp  "HB Sent 5:10.0.4.1"  ETV
vector 1006  CAIN.eNodeB1.sctp  "RTO 5:10.0.4.1"  ETV
vector 1062  CAIN.eNodeB1.sctp  "Slow Start Threshold 5:10.0.5.1"  ETV
vector 1063  CAIN.eNodeB1.sctp  "Congestion Window 5:10.0.5.1"  ETV
vector 1064  CAIN.eNodeB1.sctp  "Bandwidth 5:10.0.5.1"  ETV
vector 1060  CAIN.eNodeB1.sctp  "RTO 5:10.0.5.1"  ETV
vector 1138  CAIN.eNodeB.sctp  "Slow Start Threshold 6:10.0.3.2"  ETV
vector 1139  CAIN.eNodeB.sctp  "Congestion Window 6:10.0.3.2"  ETV
vector 1140  CAIN.eNodeB.sctp  "Bandwidth 6:10.0.3.2"  ETV
vector 1143  CAIN.eNodeB.sctp  "HB Sent 6:10.0.3.2"  ETV
vector 1136  CAIN.eNodeB.sctp  "RTO 6:10.0.3.2"  ETV
vector 1111  CAIN.eNodeB.sctp  "Slow Start Threshold 6:10.0.4.2"  ETV
vector 1112  CAIN.eNodeB.sctp  "Congestion Window 6:10.0.4.2"  ETV
vector 1113  CAIN.eNodeB.sctp  "Bandwidth 6:10.0.4.2"  ETV
vector 1116  CAIN.eNodeB.sctp  "HB Sent 6:10.0.4.2"  ETV
vector 1109  CAIN.eNodeB.sctp  "RTO 6:10.0.4.2"  ETV
vector 1165  CAIN.eNodeB.sctp  "Slow Start Threshold 6:10.0.5.2"  ETV
vector 1166  CAIN.eNodeB.sctp  "Congestion Window 6:10.0.5.2"  ETV
vector 1167  CAIN.eNodeB.sctp  "Bandwidth 6:10.0.5.2"  ETV
vector 1163  CAIN.eNodeB.sctp  "RTO 6:10.0.5.2"  ETV
vector 916  CAIN.eNodeB.sctp  "HB ACK Sent 1:10.0.5.2"  ETV
vector 917  CAIN.eNodeB.sctp  "HB Received 1:10.0.5.2"  ETV
vector 965  CAIN.eNodeB1.sctp  "HB ACK Sent 2:10.0.5.1"  ETV
vector 966  CAIN.eNodeB1.sctp  "HB Received 2:10.0.5.1"  ETV
vector 1219  CAIN.eNodeB.sctp  "Slow Start Threshold 1:10.0.3.2"  ETV
vector 1220  CAIN.eNodeB.sctp  "Congestion Window 1:10.0.3.2"  ETV
vector 1221  CAIN.eNodeB.sctp  "Bandwidth 1:10.0.3.2"  ETV
vector 1224  CAIN.eNodeB.sctp  "HB Sent 1:10.0.3.2"  ETV
vector 1217  CAIN.eNodeB.sctp  "RTO 1:10.0.3.2"  ETV
vector 1192  CAIN.eNodeB.sctp  "Slow Start Threshold 1:10.0.4.2"  ETV
vector 1193  CAIN.eNodeB.sctp  "Congestion Window 1:10.0.4.2"  ETV
vector 1194  CAIN.eNodeB.sctp  "Bandwidth 1:10.0.4.2"  ETV
vector 1197  CAIN.eNodeB.sctp  "HB Sent 1:10.0.4.2"  ETV
vector 1190  CAIN.eNodeB.sctp  "RTO 1:10.0.4.2"  ETV
vector 910  CAIN.eNodeB.sctp  "Slow Start Threshold 1:10.0.5.2"  ETV
vector 911  CAIN.eNodeB.sctp  "Congestion Window 1:10.0.5.2"  ETV
vector 912  CAIN.eNodeB.sctp  "Bandwidth 1:10.0.5.2"  ETV
vector 908  CAIN.eNodeB.sctp  "RTO 1:10.0.5.2"  ETV
vector 1273  CAIN.eNodeB1.sctp  "Slow Start Threshold 2:10.0.2.2"  ETV
vector 1274  CAIN.eNodeB1.sctp  "Congestion Window 2:10.0.2.2"  ETV
vector 1275  CAIN.eNodeB1.sctp  "Bandwidth 2:10.0.2.2"  ETV
vector 1278  CAIN.eNodeB1.sctp  "HB Sent 2:10.0.2.2"  ETV
vector 1271  CAIN.eNodeB1.sctp  "RTO 2:10.0.2.2"  ETV
vector 1246  CAIN.eNodeB1.sctp  "Slow Start Threshold 2:10.0.4.1"  ETV
vector 1247  CAIN.eNodeB1.sctp  "Congestion Window 2:10.0.4.1"  ETV
vector 1248  CAIN.eNodeB1.sctp  "Bandwidth 2:10.0.4.1"  ETV
vector 1251  CAIN.eNodeB1.sctp  "HB Sent 2:10.0.4.1"  ETV
vector 1244  CAIN.eNodeB1.sctp  "RTO 2:10.0.4.1"  ETV
vector 959  CAIN.eNodeB1.sctp  "Slow Start Threshold 2:10.0.5.1"  ETV
vector 960  CAIN.eNodeB1.sctp  "Congestion Window 2:10.0.5.1"  ETV
vector 961  CAIN.eNodeB1.sctp  "Bandwidth 2:10.0.5.1"  ETV
vector 957  CAIN.eNodeB1.sctp  "RTO 2:10.0.5.1"  ETV
vector 1173  CAIN.eNodeB.sctp  "HB ACK Received 6:10.0.5.2"  ETV
vector 1164  CAIN.eNodeB.sctp  "RTT 6:10.0.5.2"  ETV
vector 1070  CAIN.eNodeB1.sctp  "HB ACK Received 5:10.0.5.1"  ETV
vector 1061  CAIN.eNodeB1.sctp  "RTT 5:10.0.5.1"  ETV
vector 1171  CAIN.eNodeB.sctp  "HB ACK Sent 6:10.0.5.2"  ETV
vector 1172  CAIN.eNodeB.sctp  "HB Received 6:10.0.5.2"  ETV
vector 1068  CAIN.eNodeB1.sctp  "HB ACK Sent 5:10.0.5.1"  ETV
vector 1069  CAIN.eNodeB1.sctp  "HB Received 5:10.0.5.1"  ETV
vector 967  CAIN.eNodeB1.sctp  "HB ACK Received 2:10.0.5.1"  ETV
vector 958  CAIN.eNodeB1.sctp  "RTT 2:10.0.5.1"  ETV
vector 918  CAIN.eNodeB.sctp  "HB ACK Received 1:10.0.5.2"  ETV
vector 909  CAIN.eNodeB.sctp  "RTT 1:10.0.5.2"  ETV
vector 96  CAIN.eNodeB.nic.mac  receivedPacketFromLowerLayer:vector(packetBytes)  ETV
attr interpolationmode  none
attr source  receivedPacketFromLowerLayer
vector 1305  CAIN.eNodeB.sctp  "SendQueue of Association 6"  ETV
vector 1168  CAIN.eNodeB.sctp  "TSN Sent 6:10.0.5.2"  ETV
vector 1175  CAIN.eNodeB.sctp  "Outstanding Bytes 6:10.0.5.2"  ETV
vector 848  CAIN.eNodeB.sctp  "Outstanding Bytes 3:Total"  ETV
vector 1174  CAIN.eNodeB.sctp  "Queued Sent Bytes 6:10.0.5.2"  ETV
vector 847  CAIN.eNodeB.sctp  "Queued Sent Bytes 3:Total"  ETV
vector 963  CAIN.eNodeB1.sctp  "TSN Received 2:10.0.5.1"  ETV
vector 939  CAIN.eNodeB1.sctp  "Queued Received Bytes 2:Total"  ETV
vector 935  CAIN.eNodeB1.sctp  "Advertised Receiver Window 2"  ETV
vector 944  CAIN.eNodeB1.sctp  "Number of Total Gap Blocks Stored 2"  ETV
vector 945  CAIN.eNodeB1.sctp  "Number of Revokable Gap Blocks Stored 2"  ETV
vector 946  CAIN.eNodeB1.sctp  "Number of Non-Revokable Gap Blocks Stored 2"  ETV
vector 947  CAIN.eNodeB1.sctp  "Number of Duplicate TSNs Stored 2"  ETV
vector 951  CAIN.eNodeB1.sctp  "Length of SACK Sent 2"  ETV
vector 948  CAIN.eNodeB1.sctp  "Number of Revokable Gap Blocks Sent 2"  ETV
vector 949  CAIN.eNodeB1.sctp  "Number of Non-Revokable Gap Blocks Sent 2"  ETV
vector 950  CAIN.eNodeB1.sctp  "Number of Duplicate TSNs Sent 2"  ETV
vector 955  CAIN.eNodeB1.sctp  "End to End Delay of Association 2"  ETV
vector 199  CAIN.eNodeB1.x2App[0].client  rcvdPk:vector(packetBytes)  ETV
attr interpolationmode  none
attr source  rcvdPk
attr title  "packets received, vector(packetBytes)"
vector 1304  CAIN.eNodeB.sctp  "Number of Gap Blocks in Last SACK of Association 6"  ETV
vector 849  CAIN.eNodeB.sctp  "Number of Revokable Gap Blocks in SACK 3"  ETV
vector 850  CAIN.eNodeB.sctp  "Number of Non-Revokable Gap Blocks in SACK 3"  ETV
vector 1185  CAIN.eNodeB.sctp  "TSN Acked CumAck 6:10.0.5.2"  ETV
vector 1151  CAIN.eNodeB.sctp  "Number of Gap Acked Chunks in Last SACK 6:10.0.3.2"  ETV
vector 1152  CAIN.eNodeB.sctp  "Number of Non-Revokable Gap Acked Chunks in Last SACK 6:10.0.3.2"  ETV
vector 1153  CAIN.eNodeB.sctp  "Number of Gap Missed Chunks in Last SACK 6:10.0.3.2"  ETV
vector 1124  CAIN.eNodeB.sctp  "Number of Gap Acked Chunks in Last SACK 6:10.0.4.2"  ETV
vector 1125  CAIN.eNodeB.sctp  "Number of Non-Revokable Gap Acked Chunks in Last SACK 6:10.0.4.2"  ETV
vector 1126  CAIN.eNodeB.sctp  "Number of Gap Missed Chunks in Last SACK 6:10.0.4.2"  ETV
vector 1178  CAIN.eNodeB.sctp  "Number of Gap Acked Chunks in Last SACK 6:10.0.5.2"  ETV
vector 1179  CAIN.eNodeB.sctp  "Number of Non-Revokable Gap Acked Chunks in Last SACK 6:10.0.5.2"  ETV
vector 1180  CAIN.eNodeB.sctp  "Number of Gap Missed Chunks in Last SACK 6:10.0.5.2"  ETV
vector 859  CAIN.eNodeB.sctp  "Arwnd in Last SACK 3"  ETV
vector 1187  CAIN.eNodeB.sctp  "TSN PseudoCumAck 6:10.0.5.2"  ETV
vector 1188  CAIN.eNodeB.sctp  "TSN RTXPseudoCumAck 6:10.0.5.2"  ETV
vector 1181  CAIN.eNodeB.sctp  "Partial Bytes Acked 6:10.0.5.2"  ETV
vector 1333  CAIN.ueD2DTx[13].tcp  tcpRcvQueueBytes  ETV
vector 1320  CAIN.ueD2DTx[13].tcp  "advertised window"  ETV
vector 1319  CAIN.ueD2DTx[13].tcp  "receive window"  ETV
vector 1322  CAIN.ueD2DTx[13].tcp  "sent ack"  ETV
vector 621  CAIN.ueD2DTx[13].nic.pdcpRrc  receivedPacketFromUpperLayer:vector(packetBytes)  ETV
attr interpolationmode  none
attr source  receivedPacketFromUpperLayer
vector 624  CAIN.ueD2DTx[13].nic.pdcpRrc  sentPacketToLowerLayer:vector(packetBytes)  ETV
attr interpolationmode  none
attr source  sentPacketToLowerLayer
vector 625  CAIN.ueD2DTx[13].nic.mac  receivedPacketFromUpperLayer:vector(packetBytes)  ETV
attr interpolationmode  none
attr source  receivedPacketFromUpperLayer
vector 634  CAIN.ueD2DTx[13].nic.mac  CainMessageSent:vector  ETV
attr interpolationmode  none
attr title  "# of Sent CAIN message, vector"
vector 628  CAIN.ueD2DTx[13].nic.mac  sentPacketToLowerLayer:vector(packetBytes)  ETV
attr interpolationmode  none
attr source  sentPacketToLowerLayer
vector 530  CAIN.ueD2DTx[10].nic.mac  receivedPacketFromLowerLayer:vector(packetBytes)  ETV
attr interpolationmode  none
attr source  receivedPacketFromLowerLayer
vector 532  CAIN.ueD2DTx[10].nic.mac  sentPacketToLowerLayer:vector(packetBytes)  ETV
attr interpolationmode  none
attr source  sentPacketToLowerLayer
vector 111  CAIN.eNodeB.nic.mac  racpkt:vector  ETV
attr interpolationmode  none
attr title  "eNB received racpkt message, vector"
vector 112  CAIN.eNodeB.nic.mac  racDistanceSignal:vector  ETV
attr interpolationmode  none
attr title  "Rac distance to enb, vector"
vector 113  CAIN.eNodeB.nic.mac  racServedDevsSignal:vector  ETV
attr interpolationmode  none
attr title  "# of devices served on rac arriavall, vector"
vector 106  CAIN.eNodeB.nic.mac  DistanceSignal:vector  ETV
attr interpolationmode  none
attr title  "Distance to enb, vector"
vector 100  CAIN.eNodeB.nic.mac  CainMessage:vector  ETV
attr interpolationmode  none
attr title  "eNB received CAIN message, vector"
vector 98  CAIN.eNodeB.nic.mac  sentPacketToLowerLayer:vector(packetBytes)  ETV
attr interpolationmode  none
attr source  sentPacketToLowerLayer
vector 536  CAIN.ueD2DTx[10].nic.mac  DropedCainMessage:vector  ETV
attr interpolationmode  none
attr title  "Droped CAIN message due to RB not available, vector"
vector 1357  CAIN.ueD2DTx[18].tcp  tcpRcvQueueBytes  ETV
vector 1344  CAIN.ueD2DTx[18].tcp  "advertised window"  ETV
vector 1343  CAIN.ueD2DTx[18].tcp  "receive window"  ETV
vector 1346  CAIN.ueD2DTx[18].tcp  "sent ack"  ETV
vector 781  CAIN.ueD2DTx[18].nic.pdcpRrc  receivedPacketFromUpperLayer:vector(packetBytes)  ETV
attr interpolationmode  none
attr source  receivedPacketFromUpperLayer
vector 784  CAIN.ueD2DTx[18].nic.pdcpRrc  sentPacketToLowerLayer:vector(packetBytes)  ETV
attr interpolationmode  none
attr source  sentPacketToLowerLayer
vector 785  CAIN.ueD2DTx[18].nic.mac  receivedPacketFromUpperLayer:vector(packetBytes)  ETV
attr interpolationmode  none
attr source  receivedPacketFromUpperLayer
vector 794  CAIN.ueD2DTx[18].nic.mac  CainMessageSent:vector  ETV
attr interpolationmode  none
attr title  "# of Sent CAIN message, vector"
vector 788  CAIN.ueD2DTx[18].nic.mac  sentPacketToLowerLayer:vector(packetBytes)  ETV
attr interpolationmode  none
attr source  sentPacketToLowerLayer
vector 1381  CAIN.ueD2DTx[6].tcp  tcpRcvQueueBytes  ETV
vector 1368  CAIN.ueD2DTx[6].tcp  "advertised window"  ETV
vector 1367  CAIN.ueD2DTx[6].tcp  "receive window"  ETV
vector 1370  CAIN.ueD2DTx[6].tcp  "sent ack"  ETV
vector 397  CAIN.ueD2DTx[6].nic.pdcpRrc  receivedPacketFromUpperLayer:vector(packetBytes)  ETV
attr interpolationmode  none
attr source  receivedPacketFromUpperLayer
vector 400  CAIN.ueD2DTx[6].nic.pdcpRrc  sentPacketToLowerLayer:vector(packetBytes)  ETV
attr interpolationmode  none
attr source  sentPacketToLowerLayer
vector 401  CAIN.ueD2DTx[6].nic.mac  receivedPacketFromUpperLayer:vector(packetBytes)  ETV
attr interpolationmode  none
attr source  receivedPacketFromUpperLayer
vector 411  CAIN.ueD2DTx[6].nic.mac  CainHopMessageSent:vector  ETV
attr interpolationmode  none
attr title  "# of Sent CAIN hop message, vector"
vector 404  CAIN.ueD2DTx[6].nic.mac  sentPacketToLowerLayer:vector(packetBytes)  ETV
attr interpolationmode  none
attr source  sentPacketToLowerLayer
vector 1405  CAIN.ueD2DTx[14].tcp  tcpRcvQueueBytes  ETV
vector 1392  CAIN.ueD2DTx[14].tcp  "advertised window"  ETV
vector 1391  CAIN.ueD2DTx[14].tcp  "receive window"  ETV
vector 1394  CAIN.ueD2DTx[14].tcp  "sent ack"  ETV
vector 653  CAIN.ueD2DTx[14].nic.pdcpRrc  receivedPacketFromUpperLayer:vector(packetBytes)  ETV
attr interpolationmode  none
attr source  receivedPacketFromUpperLayer
vector 656  CAIN.ueD2DTx[14].nic.pdcpRrc  sentPacketToLowerLayer:vector(packetBytes)  ETV
attr interpolationmode  none
attr source  sentPacketToLowerLayer
vector 657  CAIN.ueD2DTx[14].nic.mac  receivedPacketFromUpperLayer:vector(packetBytes)  ETV
attr interpolationmode  none
attr source  receivedPacketFromUpperLayer
vector 666  CAIN.ueD2DTx[14].nic.mac  CainMessageSent:vector  ETV
attr interpolationmode  none
attr title  "# of Sent CAIN message, vector"
vector 660  CAIN.ueD2DTx[14].nic.mac  sentPacketToLowerLayer:vector(packetBytes)  ETV
attr interpolationmode  none
attr source  sentPacketToLowerLayer
vector 786  CAIN.ueD2DTx[18].nic.mac  receivedPacketFromLowerLayer:vector(packetBytes)  ETV
attr interpolationmode  none
attr source  receivedPacketFromLowerLayer
vector 1429  CAIN.ueD2DTx[12].tcp  tcpRcvQueueBytes  ETV
vector 1416  CAIN.ueD2DTx[12].tcp  "advertised window"  ETV
vector 1415  CAIN.ueD2DTx[12].tcp  "receive window"  ETV
vector 1418  CAIN.ueD2DTx[12].tcp  "sent ack"  ETV
vector 589  CAIN.ueD2DTx[12].nic.pdcpRrc  receivedPacketFromUpperLayer:vector(packetBytes)  ETV
attr interpolationmode  none
attr source  receivedPacketFromUpperLayer
vector 592  CAIN.ueD2DTx[12].nic.pdcpRrc  sentPacketToLowerLayer:vector(packetBytes)  ETV
attr interpolationmode  none
attr source  sentPacketToLowerLayer
vector 593  CAIN.ueD2DTx[12].nic.mac  receivedPacketFromUpperLayer:vector(packetBytes)  ETV
attr interpolationmode  none
attr source  receivedPacketFromUpperLayer
vector 603  CAIN.ueD2DTx[12].nic.mac  CainHopMessageSent:vector  ETV
attr interpolationmode  none
attr title  "# of Sent CAIN hop message, vector"
vector 596  CAIN.ueD2DTx[12].nic.mac  sentPacketToLowerLayer:vector(packetBytes)  ETV
attr interpolationmode  none
attr source  sentPacketToLowerLayer
vector 101  CAIN.eNodeB.nic.mac  CainHopMessage:vector  ETV
attr interpolationmode  none
attr title  "eNB received CAIN hop message, vector"
vector 537  CAIN.ueD2DTx[10].nic.mac  DropedHopMessage:vector  ETV
attr interpolationmode  none
attr title  "Droped Hop CAIN message due to RB not available, vector"
vector 1453  CAIN.ueD2DTx[2].tcp  tcpRcvQueueBytes  ETV
vector 1440  CAIN.ueD2DTx[2].tcp  "advertised window"  ETV
vector 1439  CAIN.ueD2DTx[2].tcp  "receive window"  ETV
vector 1442  CAIN.ueD2DTx[2].tcp  "sent ack"  ETV
vector 269  CAIN.ueD2DTx[2].nic.pdcpRrc  receivedPacketFromUpperLayer:vector(packetBytes)  ETV
attr interpolationmode  none
attr source  receivedPacketFromUpperLayer
vector 272  CAIN.ueD2DTx[2].nic.pdcpRrc  sentPacketToLowerLayer:vector(packetBytes)  ETV
attr interpolationmode  none
attr source  sentPacketToLowerLayer
vector 273  CAIN.ueD2DTx[2].nic.mac  receivedPacketFromUpperLayer:vector(packetBytes)  ETV
attr interpolationmode  none
attr source  receivedPacketFromUpperLayer
vector 276  CAIN.ueD2DTx[2].nic.mac  sentPacketToLowerLayer:vector(packetBytes)  ETV
attr interpolationmode  none
attr source  sentPacketToLowerLayer
vector 1477  CAIN.ueD2DTx[15].tcp  tcpRcvQueueBytes  ETV
vector 1464  CAIN.ueD2DTx[15].tcp  "advertised window"  ETV
vector 1463  CAIN.ueD2DTx[15].tcp  "receive window"  ETV
vector 1466  CAIN.ueD2DTx[15].tcp  "sent ack"  ETV
vector 685  CAIN.ueD2DTx[15].nic.pdcpRrc  receivedPacketFromUpperLayer:vector(packetBytes)  ETV
attr interpolationmode  none
attr source  receivedPacketFromUpperLayer
vector 688  CAIN.ueD2DTx[15].nic.pdcpRrc  sentPacketToLowerLayer:vector(packetBytes)  ETV
attr interpolationmode  none
attr source  sentPacketToLowerLayer
vector 689  CAIN.ueD2DTx[15].nic.mac  receivedPacketFromUpperLayer:vector(packetBytes)  ETV
attr interpolationmode  none
attr source  receivedPacketFromUpperLayer
vector 692  CAIN.ueD2DTx[15].nic.mac  sentPacketToLowerLayer:vector(packetBytes)  ETV
attr interpolationmode  none
attr source  sentPacketToLowerLayer
vector 274  CAIN.ueD2DTx[2].nic.mac  receivedPacketFromLowerLayer:vector(packetBytes)  ETV
attr interpolationmode  none
attr source  receivedPacketFromLowerLayer
vector 1501  CAIN.ueD2DTx[3].tcp  tcpRcvQueueBytes  ETV
vector 1488  CAIN.ueD2DTx[3].tcp  "advertised window"  ETV
vector 1487  CAIN.ueD2DTx[3].tcp  "receive window"  ETV
vector 1490  CAIN.ueD2DTx[3].tcp  "sent ack"  ETV
vector 301  CAIN.ueD2DTx[3].nic.pdcpRrc  receivedPacketFromUpperLayer:vector(packetBytes)  ETV
attr interpolationmode  none
attr source  receivedPacketFromUpperLayer
vector 304  CAIN.ueD2DTx[3].nic.pdcpRrc  sentPacketToLowerLayer:vector(packetBytes)  ETV
attr interpolationmode  none
attr source  sentPacketToLowerLayer
vector 305  CAIN.ueD2DTx[3].nic.mac  receivedPacketFromUpperLayer:vector(packetBytes)  ETV
attr interpolationmode  none
attr source  receivedPacketFromUpperLayer
vector 275  CAIN.ueD2DTx[2].nic.mac  sentPacketToUpperLayer:vector(packetBytes)  ETV
attr interpolationmode  none
attr source  sentPacketToUpperLayer
vector 315  CAIN.ueD2DTx[3].nic.mac  CainHopMessageSent:vector  ETV
attr interpolationmode  none
attr title  "# of Sent CAIN hop message, vector"
vector 308  CAIN.ueD2DTx[3].nic.mac  sentPacketToLowerLayer:vector(packetBytes)  ETV
attr interpolationmode  none
attr source  sentPacketToLowerLayer
vector 690  CAIN.ueD2DTx[15].nic.mac  receivedPacketFromLowerLayer:vector(packetBytes)  ETV
attr interpolationmode  none
attr source  receivedPacketFromLowerLayer
vector 115  CAIN.eNodeB.nic.phy  averageCqiUlvect:vector  ETV
attr source  averageCqiUlvect
attr title  "Average Cqi reported in UL, vector"
attr unit  cqi
vector 691  CAIN.ueD2DTx[15].nic.mac  sentPacketToUpperLayer:vector(packetBytes)  ETV
attr interpolationmode  none
attr source  sentPacketToUpperLayer
vector 1525  CAIN.ueD2DTx[8].tcp  tcpRcvQueueBytes  ETV
vector 1512  CAIN.ueD2DTx[8].tcp  "advertised window"  ETV
vector 1511  CAIN.ueD2DTx[8].tcp  "receive window"  ETV
vector 1514  CAIN.ueD2DTx[8].tcp  "sent ack"  ETV
vector 461  CAIN.ueD2DTx[8].nic.pdcpRrc  receivedPacketFromUpperLayer:vector(packetBytes)  ETV
attr interpolationmode  none
attr source  receivedPacketFromUpperLayer
vector 464  CAIN.ueD2DTx[8].nic.pdcpRrc  sentPacketToLowerLayer:vector(packetBytes)  ETV
attr interpolationmode  none
attr source  sentPacketToLowerLayer
vector 465  CAIN.ueD2DTx[8].nic.mac  receivedPacketFromUpperLayer:vector(packetBytes)  ETV
attr interpolationmode  none
attr source  receivedPacketFromUpperLayer
vector 99  CAIN.eNodeB.nic.mac  measuredItbs:vector  ETV
attr source  measuredItbs
attr title  "TBS index, vector"
attr unit  ""
vector 474  CAIN.ueD2DTx[8].nic.mac  CainMessageSent:vector  ETV
attr interpolationmode  none
attr title  "# of Sent CAIN message, vector"
vector 468  CAIN.ueD2DTx[8].nic.mac  sentPacketToLowerLayer:vector(packetBytes)  ETV
attr interpolationmode  none
attr source  sentPacketToLowerLayer
vector 818  CAIN.ueD2DTx[19].nic.mac  receivedPacketFromLowerLayer:vector(packetBytes)  ETV
attr interpolationmode  none
attr source  receivedPacketFromLowerLayer
vector 820  CAIN.ueD2DTx[19].nic.mac  sentPacketToLowerLayer:vector(packetBytes)  ETV
attr interpolationmode  none
attr source  sentPacketToLowerLayer
vector 97  CAIN.eNodeB.nic.mac  sentPacketToUpperLayer:vector(packetBytes)  ETV
attr interpolationmode  none
attr source  sentPacketToUpperLayer
vector 92  CAIN.eNodeB.nic.pdcpRrc  receivedPacketFromLowerLayer:vector(packetBytes)  ETV
attr interpolationmode  none
attr source  receivedPacketFromLowerLayer
vector 93  CAIN.eNodeB.nic.pdcpRrc  sentPacketToUpperLayer:vector(packetBytes)  ETV
attr interpolationmode  none
attr source  sentPacketToUpperLayer
vector 86  CAIN.eNodeB.udp  sentPk:vector(packetBytes)  ETV
attr interpolationmode  none
attr source  sentPk
attr title  "packets sent, vector(packetBytes)"
vector 145  CAIN.eNodeB1.udp  rcvdPk:vector(packetBytes)  ETV
attr interpolationmode  none
attr source  rcvdPk
attr title  "packets received, vector(packetBytes)"
vector 146  CAIN.eNodeB1.udp  passedUpPk:vector(count)  ETV
attr interpolationmode  none
attr title  "packets passed up, vector(count)"
vector 824  CAIN.ueD2DTx[19].nic.mac  DropedCainMessage:vector  ETV
attr interpolationmode  none
attr title  "Droped CAIN message due to RB not available, vector"
vector 1549  CAIN.ueD2DTx[11].tcp  tcpRcvQueueBytes  ETV
vector 1536  CAIN.ueD2DTx[11].tcp  "advertised window"  ETV
vector 1535  CAIN.ueD2DTx[11].tcp  "receive window"  ETV
vector 1538  CAIN.ueD2DTx[11].tcp  "sent ack"  ETV
vector 557  CAIN.ueD2DTx[11].nic.pdcpRrc  receivedPacketFromUpperLayer:vector(packetBytes)  ETV
attr interpolationmode  none
attr source  receivedPacketFromUpperLayer
vector 560  CAIN.ueD2DTx[11].nic.pdcpRrc  sentPacketToLowerLayer:vector(packetBytes)  ETV
attr interpolationmode  none
attr source  sentPacketToLowerLayer
vector 561  CAIN.ueD2DTx[11].nic.mac  receivedPacketFromUpperLayer:vector(packetBytes)  ETV
attr interpolationmode  none
attr source  receivedPacketFromUpperLayer
vector 571  CAIN.ueD2DTx[11].nic.mac  CainHopMessageSent:vector  ETV
attr interpolationmode  none
attr title  "# of Sent CAIN hop message, vector"
vector 564  CAIN.ueD2DTx[11].nic.mac  sentPacketToLowerLayer:vector(packetBytes)  ETV
attr interpolationmode  none
attr source  sentPacketToLowerLayer
vector 109  CAIN.eNodeB.nic.mac  ServedHopDevs:vector  ETV
attr interpolationmode  none
attr title  "# of devices served on hop forwarding, vector"
vector 498  CAIN.ueD2DTx[9].nic.mac  receivedPacketFromLowerLayer:vector(packetBytes)  ETV
attr interpolationmode  none
attr source  receivedPacketFromLowerLayer
vector 500  CAIN.ueD2DTx[9].nic.mac  sentPacketToLowerLayer:vector(packetBytes)  ETV
attr interpolationmode  none
attr source  sentPacketToLowerLayer
vector 108  CAIN.eNodeB.nic.mac  ServedDevs:vector  ETV
attr interpolationmode  none
attr title  "# of devices served on cain forwarding, vector"
vector 1573  CAIN.ueD2DTx[7].tcp  tcpRcvQueueBytes  ETV
vector 1560  CAIN.ueD2DTx[7].tcp  "advertised window"  ETV
vector 1559  CAIN.ueD2DTx[7].tcp  "receive window"  ETV
vector 1562  CAIN.ueD2DTx[7].tcp  "sent ack"  ETV
vector 429  CAIN.ueD2DTx[7].nic.pdcpRrc  receivedPacketFromUpperLayer:vector(packetBytes)  ETV
attr interpolationmode  none
attr source  receivedPacketFromUpperLayer
vector 432  CAIN.ueD2DTx[7].nic.pdcpRrc  sentPacketToLowerLayer:vector(packetBytes)  ETV
attr interpolationmode  none
attr source  sentPacketToLowerLayer
vector 433  CAIN.ueD2DTx[7].nic.mac  receivedPacketFromUpperLayer:vector(packetBytes)  ETV
attr interpolationmode  none
attr source  receivedPacketFromUpperLayer
vector 442  CAIN.ueD2DTx[7].nic.mac  CainMessageSent:vector  ETV
attr interpolationmode  none
attr title  "# of Sent CAIN message, vector"
vector 436  CAIN.ueD2DTx[7].nic.mac  sentPacketToLowerLayer:vector(packetBytes)  ETV
attr interpolationmode  none
attr source  sentPacketToLowerLayer
vector 149  CAIN.eNodeB1.nic.pdcpRrc  receivedPacketFromUpperLayer:vector(packetBytes)  ETV
attr interpolationmode  none
attr source  receivedPacketFromUpperLayer
vector 152  CAIN.eNodeB1.nic.pdcpRrc  sentPacketToLowerLayer:vector(packetBytes)  ETV
attr interpolationmode  none
attr source  sentPacketToLowerLayer
vector 1301  CAIN.eNodeB1.sctp  "SendQueue of Association 5"  ETV
vector 1065  CAIN.eNodeB1.sctp  "TSN Sent 5:10.0.5.1"  ETV
vector 1072  CAIN.eNodeB1.sctp  "Outstanding Bytes 5:10.0.5.1"  ETV
vector 870  CAIN.eNodeB1.sctp  "Outstanding Bytes 4:Total"  ETV
vector 1071  CAIN.eNodeB1.sctp  "Queued Sent Bytes 5:10.0.5.1"  ETV
vector 869  CAIN.eNodeB1.sctp  "Queued Sent Bytes 4:Total"  ETV
vector 153  CAIN.eNodeB1.nic.mac  receivedPacketFromUpperLayer:vector(packetBytes)  ETV
attr interpolationmode  none
attr source  receivedPacketFromUpperLayer
vector 914  CAIN.eNodeB.sctp  "TSN Received 1:10.0.5.2"  ETV
vector 890  CAIN.eNodeB.sctp  "Queued Received Bytes 1:Total"  ETV
vector 886  CAIN.eNodeB.sctp  "Advertised Receiver Window 1"  ETV
vector 895  CAIN.eNodeB.sctp  "Number of Total Gap Blocks Stored 1"  ETV
vector 896  CAIN.eNodeB.sctp  "Number of Revokable Gap Blocks Stored 1"  ETV
vector 897  CAIN.eNodeB.sctp  "Number of Non-Revokable Gap Blocks Stored 1"  ETV
vector 898  CAIN.eNodeB.sctp  "Number of Duplicate TSNs Stored 1"  ETV
vector 902  CAIN.eNodeB.sctp  "Length of SACK Sent 1"  ETV
vector 899  CAIN.eNodeB.sctp  "Number of Revokable Gap Blocks Sent 1"  ETV
vector 900  CAIN.eNodeB.sctp  "Number of Non-Revokable Gap Blocks Sent 1"  ETV
vector 901  CAIN.eNodeB.sctp  "Number of Duplicate TSNs Sent 1"  ETV
vector 906  CAIN.eNodeB.sctp  "End to End Delay of Association 1"  ETV
vector 141  CAIN.eNodeB.x2App[0].client  rcvdPk:vector(packetBytes)  ETV
attr interpolationmode  none
attr source  rcvdPk
attr title  "packets received, vector(packetBytes)"
vector 1300  CAIN.eNodeB1.sctp  "Number of Gap Blocks in Last SACK of Association 5"  ETV
vector 871  CAIN.eNodeB1.sctp  "Number of Revokable Gap Blocks in SACK 4"  ETV
vector 872  CAIN.eNodeB1.sctp  "Number of Non-Revokable Gap Blocks in SACK 4"  ETV
vector 1082  CAIN.eNodeB1.sctp  "TSN Acked CumAck 5:10.0.5.1"  ETV
vector 1048  CAIN.eNodeB1.sctp  "Number of Gap Acked Chunks in Last SACK 5:10.0.2.2"  ETV
vector 1049  CAIN.eNodeB1.sctp  "Number of Non-Revokable Gap Acked Chunks in Last SACK 5:10.0.2.2"  ETV
vector 1050  CAIN.eNodeB1.sctp  "Number of Gap Missed Chunks in Last SACK 5:10.0.2.2"  ETV
vector 1021  CAIN.eNodeB1.sctp  "Number of Gap Acked Chunks in Last SACK 5:10.0.4.1"  ETV
vector 1022  CAIN.eNodeB1.sctp  "Number of Non-Revokable Gap Acked Chunks in Last SACK 5:10.0.4.1"  ETV
vector 1023  CAIN.eNodeB1.sctp  "Number of Gap Missed Chunks in Last SACK 5:10.0.4.1"  ETV
vector 1075  CAIN.eNodeB1.sctp  "Number of Gap Acked Chunks in Last SACK 5:10.0.5.1"  ETV
vector 1076  CAIN.eNodeB1.sctp  "Number of Non-Revokable Gap Acked Chunks in Last SACK 5:10.0.5.1"  ETV
vector 1077  CAIN.eNodeB1.sctp  "Number of Gap Missed Chunks in Last SACK 5:10.0.5.1"  ETV
vector 881  CAIN.eNodeB1.sctp  "Arwnd in Last SACK 4"  ETV
vector 1084  CAIN.eNodeB1.sctp  "TSN PseudoCumAck 5:10.0.5.1"  ETV
vector 1085  CAIN.eNodeB1.sctp  "TSN RTXPseudoCumAck 5:10.0.5.1"  ETV
vector 1078  CAIN.eNodeB1.sctp  "Partial Bytes Acked 5:10.0.5.1"  ETV
vector 1597  CAIN.ueD2DTx[4].tcp  tcpRcvQueueBytes  ETV
vector 1584  CAIN.ueD2DTx[4].tcp  "advertised window"  ETV
vector 1583  CAIN.ueD2DTx[4].tcp  "receive window"  ETV
vector 1586  CAIN.ueD2DTx[4].tcp  "sent ack"  ETV
vector 333  CAIN.ueD2DTx[4].nic.pdcpRrc  receivedPacketFromUpperLayer:vector(packetBytes)  ETV
attr interpolationmode  none
attr source  receivedPacketFromUpperLayer
vector 336  CAIN.ueD2DTx[4].nic.pdcpRrc  sentPacketToLowerLayer:vector(packetBytes)  ETV
attr interpolationmode  none
attr source  sentPacketToLowerLayer
vector 337  CAIN.ueD2DTx[4].nic.mac  receivedPacketFromUpperLayer:vector(packetBytes)  ETV
attr interpolationmode  none
attr source  receivedPacketFromUpperLayer
vector 347  CAIN.ueD2DTx[4].nic.mac  CainHopMessageSent:vector  ETV
attr interpolationmode  none
attr title  "# of Sent CAIN hop message, vector"
vector 340  CAIN.ueD2DTx[4].nic.mac  sentPacketToLowerLayer:vector(packetBytes)  ETV
attr interpolationmode  none
attr source  sentPacketToLowerLayer
vector 722  CAIN.ueD2DTx[16].nic.mac  receivedPacketFromLowerLayer:vector(packetBytes)  ETV
attr interpolationmode  none
attr source  receivedPacketFromLowerLayer
vector 724  CAIN.ueD2DTx[16].nic.mac  sentPacketToLowerLayer:vector(packetBytes)  ETV
attr interpolationmode  none
attr source  sentPacketToLowerLayer
vector 154  CAIN.eNodeB1.nic.mac  receivedPacketFromLowerLayer:vector(packetBytes)  ETV
attr interpolationmode  none
attr source  receivedPacketFromLowerLayer
vector 729  CAIN.ueD2DTx[16].nic.mac  DropedHopMessage:vector  ETV
attr interpolationmode  none
attr title  "Droped Hop CAIN message due to RB not available, vector"
vector 1621  CAIN.ueD2DTx[16].tcp  tcpRcvQueueBytes  ETV
vector 1608  CAIN.ueD2DTx[16].tcp  "advertised window"  ETV
vector 1607  CAIN.ueD2DTx[16].tcp  "receive window"  ETV
vector 1610  CAIN.ueD2DTx[16].tcp  "sent ack"  ETV
vector 717  CAIN.ueD2DTx[16].nic.pdcpRrc  receivedPacketFromUpperLayer:vector(packetBytes)  ETV
attr interpolationmode  none
attr source  receivedPacketFromUpperLayer
vector 720  CAIN.ueD2DTx[16].nic.pdcpRrc  sentPacketToLowerLayer:vector(packetBytes)  ETV
attr interpolationmode  none
attr source  sentPacketToLowerLayer
vector 721  CAIN.ueD2DTx[16].nic.mac  receivedPacketFromUpperLayer:vector(packetBytes)  ETV
attr interpolationmode  none
attr source  receivedPacketFromUpperLayer
vector 1645  CAIN.ueD2DTx[1].tcp  tcpRcvQueueBytes  ETV
vector 1632  CAIN.ueD2DTx[1].tcp  "advertised window"  ETV
vector 1631  CAIN.ueD2DTx[1].tcp  "receive window"  ETV
vector 1634  CAIN.ueD2DTx[1].tcp  "sent ack"  ETV
vector 237  CAIN.ueD2DTx[1].nic.pdcpRrc  receivedPacketFromUpperLayer:vector(packetBytes)  ETV
attr interpolationmode  none
attr source  receivedPacketFromUpperLayer
vector 240  CAIN.ueD2DTx[1].nic.pdcpRrc  sentPacketToLowerLayer:vector(packetBytes)  ETV
attr interpolationmode  none
attr source  sentPacketToLowerLayer
vector 241  CAIN.ueD2DTx[1].nic.mac  receivedPacketFromUpperLayer:vector(packetBytes)  ETV
attr interpolationmode  none
attr source  receivedPacketFromUpperLayer
vector 251  CAIN.ueD2DTx[1].nic.mac  CainHopMessageSent:vector  ETV
attr interpolationmode  none
attr title  "# of Sent CAIN hop message, vector"
vector 244  CAIN.ueD2DTx[1].nic.mac  sentPacketToLowerLayer:vector(packetBytes)  ETV
attr interpolationmode  none
attr source  sentPacketToLowerLayer
vector 466  CAIN.ueD2DTx[8].nic.mac  receivedPacketFromLowerLayer:vector(packetBytes)  ETV
attr interpolationmode  none
attr source  receivedPacketFromLowerLayer
vector 562  CAIN.ueD2DTx[11].nic.mac  receivedPacketFromLowerLayer:vector(packetBytes)  ETV
attr interpolationmode  none
attr source  receivedPacketFromLowerLayer
vector 723  CAIN.ueD2DTx[16].nic.mac  sentPacketToUpperLayer:vector(packetBytes)  ETV
attr interpolationmode  none
attr source  sentPacketToUpperLayer
vector 795  CAIN.ueD2DTx[18].nic.mac  CainHopMessageSent:vector  ETV
attr interpolationmode  none
attr title  "# of Sent CAIN hop message, vector"
vector 658  CAIN.ueD2DTx[14].nic.mac  receivedPacketFromLowerLayer:vector(packetBytes)  ETV
attr interpolationmode  none
attr source  receivedPacketFromLowerLayer
vector 117  CAIN.eNodeB.pppIf.queue  rcvdPk:vector(packetBytes)  ETV
attr interpolationmode  none
attr title  "received packets, vector(packetBytes)"
vector 119  CAIN.eNodeB.pppIf.queue  queueingTime:vector  ETV
attr interpolationmode  none
attr title  "queueing time, vector"
vector 126  CAIN.eNodeB.pppIf.ppp  rcvdPkFromHL:vector(packetBytes)  ETV
attr interpolationmode  none
attr source  packetReceivedFromUpper
attr title  "packets received from higher layer, vector(packetBytes)"
vector 122  CAIN.eNodeB.pppIf.ppp  txPk:vector(packetBytes)  ETV
attr interpolationmode  none
attr source  packetSentToLower
attr title  "packets transmitted, vector(packetBytes)"
vector 59  CAIN.pgw.ppp[0].ppp  rxPkOk:vector(packetBytes)  ETV
attr interpolationmode  none
attr source  rxPkOk
attr title  "packets received OK, vector(packetBytes)"
vector 63  CAIN.pgw.ppp[0].ppp  passedUpPk:vector(packetBytes)  ETV
attr interpolationmode  none
attr source  packetSentToUpper
attr title  "packets passed to higher layer, vector(packetBytes)"
vector 44  CAIN.pgw.udp  rcvdPk:vector(packetBytes)  ETV
attr interpolationmode  none
attr source  rcvdPk
attr title  "packets received, vector(packetBytes)"
vector 45  CAIN.pgw.udp  passedUpPk:vector(count)  ETV
attr interpolationmode  none
attr title  "packets passed up, vector(count)"
vector 43  CAIN.pgw.udp  sentPk:vector(packetBytes)  ETV
attr interpolationmode  none
attr source  sentPk
attr title  "packets sent, vector(packetBytes)"
vector 64  CAIN.pgw.ppp[1].queue  rcvdPk:vector(packetBytes)  ETV
attr interpolationmode  none
attr title  "received packets, vector(packetBytes)"
vector 66  CAIN.pgw.ppp[1].queue  queueingTime:vector  ETV
attr interpolationmode  none
attr title  "queueing time, vector"
vector 73  CAIN.pgw.ppp[1].ppp  rcvdPkFromHL:vector(packetBytes)  ETV
attr interpolationmode  none
attr source  packetReceivedFromUpper
attr title  "packets received from higher layer, vector(packetBytes)"
vector 69  CAIN.pgw.ppp[1].ppp  txPk:vector(packetBytes)  ETV
attr interpolationmode  none
attr source  packetSentToLower
attr title  "packets transmitted, vector(packetBytes)"
vector 181  CAIN.eNodeB1.pppIf.ppp  rxPkOk:vector(packetBytes)  ETV
attr interpolationmode  none
attr source  rxPkOk
attr title  "packets received OK, vector(packetBytes)"
vector 185  CAIN.eNodeB1.pppIf.ppp  passedUpPk:vector(packetBytes)  ETV
attr interpolationmode  none
attr source  packetSentToUpper
attr title  "packets passed to higher layer, vector(packetBytes)"
vector 1669  CAIN.ueD2DTx[9].tcp  tcpRcvQueueBytes  ETV
vector 1656  CAIN.ueD2DTx[9].tcp  "advertised window"  ETV
vector 1655  CAIN.ueD2DTx[9].tcp  "receive window"  ETV
vector 1658  CAIN.ueD2DTx[9].tcp  "sent ack"  ETV
vector 493  CAIN.ueD2DTx[9].nic.pdcpRrc  receivedPacketFromUpperLayer:vector(packetBytes)  ETV
attr interpolationmode  none
attr source  receivedPacketFromUpperLayer
vector 496  CAIN.ueD2DTx[9].nic.pdcpRrc  sentPacketToLowerLayer:vector(packetBytes)  ETV
attr interpolationmode  none
attr source  sentPacketToLowerLayer
vector 497  CAIN.ueD2DTx[9].nic.mac  receivedPacketFromUpperLayer:vector(packetBytes)  ETV
attr interpolationmode  none
attr source  receivedPacketFromUpperLayer
vector 169  CAIN.eNodeB1.nic.mac  racpkt:vector  ETV
attr interpolationmode  none
attr title  "eNB received racpkt message, vector"
vector 170  CAIN.eNodeB1.nic.mac  racDistanceSignal:vector  ETV
attr interpolationmode  none
attr title  "Rac distance to enb, vector"
vector 171  CAIN.eNodeB1.nic.mac  racServedDevsSignal:vector  ETV
attr interpolationmode  none
attr title  "# of devices served on rac arriavall, vector"
vector 156  CAIN.eNodeB1.nic.mac  sentPacketToLowerLayer:vector(packetBytes)  ETV
attr interpolationmode  none
attr source  sentPacketToLowerLayer
vector 1693  CAIN.ueD2DTx[10].tcp  tcpRcvQueueBytes  ETV
vector 1680  CAIN.ueD2DTx[10].tcp  "advertised window"  ETV
vector 1679  CAIN.ueD2DTx[10].tcp  "receive window"  ETV
vector 1682  CAIN.ueD2DTx[10].tcp  "sent ack"  ETV
vector 525  CAIN.ueD2DTx[10].nic.pdcpRrc  receivedPacketFromUpperLayer:vector(packetBytes)  ETV
attr interpolationmode  none
attr source  receivedPacketFromUpperLayer
vector 528  CAIN.ueD2DTx[10].nic.pdcpRrc  sentPacketToLowerLayer:vector(packetBytes)  ETV
attr interpolationmode  none
attr source  sentPacketToLowerLayer
vector 529  CAIN.ueD2DTx[10].nic.mac  receivedPacketFromUpperLayer:vector(packetBytes)  ETV
attr interpolationmode  none
attr source  receivedPacketFromUpperLayer
vector 538  CAIN.ueD2DTx[10].nic.mac  CainMessageSent:vector  ETV
attr interpolationmode  none
attr title  "# of Sent CAIN message, vector"
vector 1717  CAIN.ueD2DTx[17].tcp  tcpRcvQueueBytes  ETV
vector 1704  CAIN.ueD2DTx[17].tcp  "advertised window"  ETV
vector 1703  CAIN.ueD2DTx[17].tcp  "receive window"  ETV
vector 1706  CAIN.ueD2DTx[17].tcp  "sent ack"  ETV
vector 749  CAIN.ueD2DTx[17].nic.pdcpRrc  receivedPacketFromUpperLayer:vector(packetBytes)  ETV
attr interpolationmode  none
attr source  receivedPacketFromUpperLayer
vector 752  CAIN.ueD2DTx[17].nic.pdcpRrc  sentPacketToLowerLayer:vector(packetBytes)  ETV
attr interpolationmode  none
attr source  sentPacketToLowerLayer
vector 753  CAIN.ueD2DTx[17].nic.mac  receivedPacketFromUpperLayer:vector(packetBytes)  ETV
attr interpolationmode  none
attr source  receivedPacketFromUpperLayer
vector 1741  CAIN.ueD2DTx[0].tcp  tcpRcvQueueBytes  ETV
vector 1728  CAIN.ueD2DTx[0].tcp  "advertised window"  ETV
vector 1727  CAIN.ueD2DTx[0].tcp  "receive window"  ETV
vector 1730  CAIN.ueD2DTx[0].tcp  "sent ack"  ETV
vector 205  CAIN.ueD2DTx[0].nic.pdcpRrc  receivedPacketFromUpperLayer:vector(packetBytes)  ETV
attr interpolationmode  none
attr source  receivedPacketFromUpperLayer
vector 208  CAIN.ueD2DTx[0].nic.pdcpRrc  sentPacketToLowerLayer:vector(packetBytes)  ETV
attr interpolationmode  none
attr source  sentPacketToLowerLayer
vector 209  CAIN.ueD2DTx[0].nic.mac  receivedPacketFromUpperLayer:vector(packetBytes)  ETV
attr interpolationmode  none
attr source  receivedPacketFromUpperLayer
vector 219  CAIN.ueD2DTx[0].nic.mac  CainHopMessageSent:vector  ETV
attr interpolationmode  none
attr title  "# of Sent CAIN hop message, vector"
vector 212  CAIN.ueD2DTx[0].nic.mac  sentPacketToLowerLayer:vector(packetBytes)  ETV
attr interpolationmode  none
attr source  sentPacketToLowerLayer
vector 756  CAIN.ueD2DTx[17].nic.mac  sentPacketToLowerLayer:vector(packetBytes)  ETV
attr interpolationmode  none
attr source  sentPacketToLowerLayer
vector 434  CAIN.ueD2DTx[7].nic.mac  receivedPacketFromLowerLayer:vector(packetBytes)  ETV
attr interpolationmode  none
attr source  receivedPacketFromLowerLayer
vector 754  CAIN.ueD2DTx[17].nic.mac  receivedPacketFromLowerLayer:vector(packetBytes)  ETV
attr interpolationmode  none
attr source  receivedPacketFromLowerLayer
vector 1765  CAIN.ueD2DTx[19].tcp  tcpRcvQueueBytes  ETV
vector 1752  CAIN.ueD2DTx[19].tcp  "advertised window"  ETV
vector 1751  CAIN.ueD2DTx[19].tcp  "receive window"  ETV
vector 1754  CAIN.ueD2DTx[19].tcp  "sent ack"  ETV
vector 813  CAIN.ueD2DTx[19].nic.pdcpRrc  receivedPacketFromUpperLayer:vector(packetBytes)  ETV
attr interpolationmode  none
attr source  receivedPacketFromUpperLayer
vector 816  CAIN.ueD2DTx[19].nic.pdcpRrc  sentPacketToLowerLayer:vector(packetBytes)  ETV
attr interpolationmode  none
attr source  sentPacketToLowerLayer
vector 817  CAIN.ueD2DTx[19].nic.mac  receivedPacketFromUpperLayer:vector(packetBytes)  ETV
attr interpolationmode  none
attr source  receivedPacketFromUpperLayer
vector 1789  CAIN.ueD2DTx[5].tcp  tcpRcvQueueBytes  ETV
vector 1776  CAIN.ueD2DTx[5].tcp  "advertised window"  ETV
vector 1775  CAIN.ueD2DTx[5].tcp  "receive window"  ETV
vector 1778  CAIN.ueD2DTx[5].tcp  "sent ack"  ETV
vector 365  CAIN.ueD2DTx[5].nic.pdcpRrc  receivedPacketFromUpperLayer:vector(packetBytes)  ETV
attr interpolationmode  none
attr source  receivedPacketFromUpperLayer
vector 368  CAIN.ueD2DTx[5].nic.pdcpRrc  sentPacketToLowerLayer:vector(packetBytes)  ETV
attr interpolationmode  none
attr source  sentPacketToLowerLayer
vector 369  CAIN.ueD2DTx[5].nic.mac  receivedPacketFromUpperLayer:vector(packetBytes)  ETV
attr interpolationmode  none
attr source  receivedPacketFromUpperLayer
vector 379  CAIN.ueD2DTx[5].nic.mac  CainHopMessageSent:vector  ETV
attr interpolationmode  none
attr title  "# of Sent CAIN hop message, vector"
vector 372  CAIN.ueD2DTx[5].nic.mac  sentPacketToLowerLayer:vector(packetBytes)  ETV
attr interpolationmode  none
attr source  sentPacketToLowerLayer
vector 819  CAIN.ueD2DTx[19].nic.mac  sentPacketToUpperLayer:vector(packetBytes)  ETV
attr interpolationmode  none
attr source  sentPacketToUpperLayer
vector 157  CAIN.eNodeB1.nic.mac  measuredItbs:vector  ETV
attr source  measuredItbs
attr title  "TBS index, vector"
attr unit  ""
vector 155  CAIN.eNodeB1.nic.mac  sentPacketToUpperLayer:vector(packetBytes)  ETV
attr interpolationmode  none
attr source  sentPacketToUpperLayer
vector 228  CAIN.ueD2DTx[0].nic.phy  averageCqiDlvect:vector  ETV
attr source  averageCqiDlvect
attr title  "Average Cqi reported in DL, vector"
attr unit  cqi
vector 210  CAIN.ueD2DTx[0].nic.mac  receivedPacketFromLowerLayer:vector(packetBytes)  ETV
attr interpolationmode  none
attr source  receivedPacketFromLowerLayer
vector 211  CAIN.ueD2DTx[0].nic.mac  sentPacketToUpperLayer:vector(packetBytes)  ETV
attr interpolationmode  none
attr source  sentPacketToUpperLayer
vector 206  CAIN.ueD2DTx[0].nic.pdcpRrc  receivedPacketFromLowerLayer:vector(packetBytes)  ETV
attr interpolationmode  none
attr source  receivedPacketFromLowerLayer
vector 207  CAIN.ueD2DTx[0].nic.pdcpRrc  sentPacketToUpperLayer:vector(packetBytes)  ETV
attr interpolationmode  none
attr source  sentPacketToUpperLayer
1108	150	0.0000001228	0
1219	235	0.0000006304	65535
1220	235	0.0000006304	8940
1221	235	0.0000006304	0.3725
1217	235	0.0000006304	3
1224	235	0.0000006304	1
1236	163	0.0000003096	0
1192	235	0.0000006304	65535
1193	235	0.0000006304	8940
1194	235	0.0000006304	0.3725
1190	235	0.0000006304	3
1197	235	0.0000006304	1
1209	163	0.0000003096	0
910	235	0.0000006304	65535
911	235	0.0000006304	8940
912	235	0.0000006304	0.3725
908	235	0.0000006304	3
908	302	0.0000008564	1
909	302	0.0000008564	2.26e-07
914	3565	0.0570000972	2000
914	3584	0.0570004484	2001
914	3584	0.0570004484	2002
914	3584	0.0570004484	2003
914	3584	0.0570004484	2004
914	3584	0.0570004484	2005
914	3584	0.0570004484	2006
914	3584	0.0570004484	2007
914	3584	0.0570004484	2008
914	3584	0.0570004484	2009
914	3584	0.0570004484	2010
914	3584	0.0570004484	2011
914	14683	0.2570021596	2012
914	14683	0.2570021596	2013
914	14683	0.2570021596	2014
914	14683	0.2570021596	2015
914	14683	0.2570021596	2016
914	14683	0.2570021596	2017
914	14683	0.2570021596	2018
914	14683	0.2570021596	2019
914	14683	0.2570021596	2020
914	14683	0.2570021596	2021
914	14683	0.2570021596	2022
914	14683	0.2570021596	2023
914	14683	0.2570021596	2024
914	14683	0.2570021596	2025
914	14683	0.2570021596	2026
914	14683	0.2570021596	2027
914	14683	0.2570021596	2028
914	14683	0.2570021596	2029
914	14683	0.2570021596	2030
914	14683	0.2570021596	2031
914	14683	0.2570021596	2032
914	14683	0.2570021596	2033
914	14683	0.2570021596	2034
914	14683	0.2570021596	2035
914	14683	0.2570021596	2036
914	14683	0.2570021596	2037
914	14683	0.2570021596	2038
914	14683	0.2570021596	2039
914	14683	0.2570021596	2040
914	14683	0.2570021596	2041
914	14683	0.2570021596	2042
914	14683	0.2570021596	2043
914	14683	0.2570021596	2044
914	14683	0.2570021596	2045
914	14683	0.2570021596	2046
914	14683	0.2570021596	2047
914	14683	0.2570021596	2048
914	14683	0.2570021596	2049
914	14683	0.2570021596	2050
914	14683	0.2570021596	2051
914	14683	0.2570021596	2052
914	14683	0.2570021596	2053
914	14683	0.2570021596	2054
914	14683	0.2570021596	2055
914	14683	0.2570021596	2056
914	14683	0.2570021596	2057
914	14683	0.2570021596	2058
914	14683	0.2570021596	2059
914	14683	0.2570021596	2060
914	14683	0.2570021596	2061
914	14683	0.2570021596	2062
914	14683	0.2570021596	2063
914	14683	0.2570021596	2064
914	14683	0.2570021596	2065
914	14683	0.2570021596	2066
914	14683	0.2570021596	2067
914	14683	0.2570021596	2068
914	14683	0.2570021596	2069
914	14683	0.2570021596	2070
914	14683	0.2570021596	2071
914	14683	0.2570021596	2072
914	14683	0.2570021596	2073
914	14683	0.2570021596	2074
914	14683	0.2570021596	2075
914	14683	0.2570021596	2076
914	14683	0.2570021596	2077
914	14683	0.2570021596	2078
914	14683	0.2570021596	2079
914	14683	0.2570021596	2080
914	14683	0.2570021596	2081
914	14683	0.2570021596	2082
914	14683	0.2570021596	2083
914	14683	0.2570021596	2084
914	14683	0.2570021596	2085
914	14683	0.2570021596	2086
914	14683	0.2570021596	2087
914	14683	0.2570021596	2088
914	14683	0.2570021596	2089
914	14683	0.2570021596	2090
914	14683	0.2570021596	2091
914	14683	0.2570021596	2092
914	14683	0.2570021596	2093
914	14683	0.2570021596	2094
914	14683	0.2570021596	2095
914	14683	0.2570021596	2096
914	14683	0.2570021596	2097
914	14683	0.2570021596	2098
914	14683	0.2570021596	2099
914	14683	0.2570021596	2100
914	14683	0.2570021596	2101
914	14683	0.2570021596	2102
914	14683	0.2570021596	2103
914	14683	0.2570021596	2104
914	14683	0.2570021596	2105
914	14683	0.2570021596	2106
914	14683	0.2570021596	2107
917	207	0.000000552	1
917	221	0.000000596	2
916	207	0.000000552	1
916	221	0.000000596	2
918	302	0.0000008564	1
918	308	0.0000009004	2
927	131	0	0
886	3565	0.0570000972	65533
886	14669	0.2570004484	65535
886	25108	0.4570021596	65535
890	3565	0.0570000972	2
890	3568	0.0570000972	2
890	3596	0.0570004484	22
890	3597	0.0570004484	0
890	3598	0.0570004484	0
890	3599	0.0570004484	0
890	3600	0.0570004484	0
890	3601	0.0570004484	0
890	3602	0.0570004484	0
890	3603	0.0570004484	0
890	3604	0.0570004484	0
890	3605	0.0570004484	0
890	3606	0.0570004484	0
890	14669	0.2570004484	0
890	14780	0.2570021596	192
890	14781	0.2570021596	0
890	14782	0.2570021596	0
890	14783	0.2570021596	0
890	14784	0.2570021596	0
890	14785	0.2570021596	0
890	14786	0.2570021596	0
890	14787	0.2570021596	0
890	14788	0.2570021596	0
890	14789	0.2570021596	0
890	14790	0.2570021596	0
890	14791	0.2570021596	0
890	14792	0.2570021596	0
890	14793	0.2570021596	0
890	14794	0.2570021596	0
890	14795	0.2570021596	0
890	14796	0.2570021596	0
890	14797	0.2570021596	0
890	14798	0.2570021596	0
890	14799	0.2570021596	0
890	14800	0.2570021596	0
890	14801	0.2570021596	0
890	14802	0.2570021596	0
890	14803	0.2570021596	0
890	14804	0.2570021596	0
890	14805	0.2570021596	0
890	14806	0.2570021596	0
890	14807	0.2570021596	0
890	14808	0.2570021596	0
890	14809	0.2570021596	0
890	14810	0.2570021596	0
890	14811	0.2570021596	0
890	14812	0.2570021596	0
890	14813	0.2570021596	0
890	14814	0.2570021596	0
890	14815	0.2570021596	0
890	14816	0.2570021596	0
890	14817	0.2570021596	0
890	14818	0.2570021596	0
890	14819	0.2570021596	0
890	14820	0.2570021596	0
890	14821	0.2570021596	0
890	14822	0.2570021596	0
890	14823	0.2570021596	0
890	14824	0.2570021596	0
890	14825	0.2570021596	0
890	14826	0.2570021596	0
890	14827	0.2570021596	0
890	14828	0.2570021596	0
890	14829	0.2570021596	0
890	14830	0.2570021596	0
890	14831	0.2570021596	0
890	14832	0.2570021596	0
890	14833	0.2570021596	0
890	14834	0.2570021596	0
890	14835	0.2570021596	0
890	14836	0.2570021596	0
890	14837	0.2570021596	0
890	14838	0.2570021596	0
890	14839	0.2570021596	0
890	14840	0.2570021596	0
890	14841	0.2570021596	0
890	14842	0.2570021596	0
890	14843	0.2570021596	0
890	14844	0.2570021596	0
890	14845	0.2570021596	0
890	14846	0.2570021596	0
890	14847	0.2570021596	0
890	14848	0.2570021596	0
890	14849	0.2570021596	0
890	14850	0.2570021596	0
890	14851	0.2570021596	0
890	14852	0.2570021596	0
890	14853	0.2570021596	0
890	14854	0.2570021596	0
890	14855	0.2570021596	0
890	14856	0.2570021596	0
890	14857	0.2570021596	0
890	14858	0.2570021596	0
890	14859	0.2570021596	0
890	14860	0.2570021596	0
890	14861	0.2570021596	0
890	14862	0.2570021596	0
890	14863	0.2570021596	0
890	14864	0.2570021596	0
890	14865	0.2570021596	0
890	14866	0.2570021596	0
890	14867	0.2570021596	0
890	14868	0.2570021596	0
890	14869	0.2570021596	0
890	14870	0.2570021596	0
890	14871	0.2570021596	0
890	14872	0.2570021596	0
890	14873	0.2570021596	0
890	14874	0.2570021596	0
890	14875	0.2570021596	0
890	25108	0.4570021596	0
895	3565	0.0570000972	0
895	14669	0.2570004484	0
895	25108	0.4570021596	0
896	3565	0.0570000972	0
896	14669	0.2570004484	0
896	25108	0.4570021596	0
897	3565	0.0570000972	0
897	14669	0.2570004484	0
897	25108	0.4570021596	0
898	3565	0.0570000972	0
898	14669	0.2570004484	0
898	25108	0.4570021596	0
899	3565	0.0570000972	0
899	14669	0.2570004484	0
899	25108	0.4570021596	0
900	3565	0.0570000972	0
900	14669	0.2570004484	0
900	25108	0.4570021596	0
901	3565	0.0570000972	0
901	14669	0.2570004484	0
901	25108	0.4570021596	0
902	3565	0.0570000972	16
902	14669	0.2570004484	16
902	25108	0.4570021596	16
904	163	0.0000003096	65535
906	3568	0.0570000972	9.72e-08
906	3596	0.0570004484	2.572e-07
906	3596	0.0570004484	2.572e-07
906	3596	0.0570004484	2.572e-07
906	3596	0.0570004484	2.572e-07
906	3596	0.0570004484	2.572e-07
906	3596	0.0570004484	2.572e-07
906	3596	0.0570004484	2.572e-07
906	3596	0.0570004484	2.572e-07
906	3596	0.0570004484	2.572e-07
906	3596	0.0570004484	2.572e-07
906	3596	0.0570004484	2.572e-07
906	14780	0.2570021596	1.6172e-06
906	14780	0.2570021596	1.6172e-06
906	14780	0.2570021596	1.6172e-06
906	14780	0.2570021596	1.6172e-06
906	14780	0.2570021596	1.6172e-06
906	14780	0.2570021596	1.6172e-06
906	14780	0.2570021596	1.6172e-06
906	14780	0.2570021596	1.6172e-06
906	14780	0.2570021596	1.6172e-06
906	14780	0.2570021596	1.6172e-06
906	14780	0.2570021596	1.6172e-06
906	14780	0.2570021596	1.6172e-06
906	14780	0.2570021596	1.6172e-06
906	14780	0.2570021596	1.6172e-06
906	14780	0.2570021596	1.6172e-06
906	14780	0.2570021596	1.6172e-06
906	14780	0.2570021596	1.6172e-06
906	14780	0.2570021596	1.6172e-06
906	14780	0.2570021596	1.6172e-06
906	14780	0.2570021596	1.6172e-06
906	14780	0.2570021596	1.6172e-06
906	14780	0.2570021596	1.6172e-06
906	14780	0.2570021596	1.6172e-06
906	14780	0.2570021596	1.6172e-06
906	14780	0.2570021596	1.6172e-06
906	14780	0.2570021596	1.6172e-06
906	14780	0.2570021596	1.6172e-06
906	14780	0.2570021596	1.6172e-06
906	14780	0.2570021596	1.6172e-06
906	14780	0.2570021596	1.6172e-06
906	14780	0.2570021596	1.6172e-06
906	14780	0.2570021596	1.6172e-06
906	14780	0.2570021596	1.6172e-06
906	14780	0.2570021596	1.6172e-06
906	14780	0.2570021596	1.6172e-06
906	14780	0.2570021596	1.6172e-06
906	14780	0.2570021596	1.6172e-06
906	14780	0.2570021596	1.6172e-06
906	14780	0.2570021596	1.6172e-06
906	14780	0.2570021596	1.6172e-06
906	14780	0.2570021596	1.6172e-06
906	14780	0.2570021596	1.6172e-06
906	14780	0.2570021596	1.6172e-06
906	14780	0.2570021596	1.6172e-06
906	14780	0.2570021596	1.6172e-06
906	14780	0.2570021596	1.6172e-06
906	14780	0.2570021596	1.6172e-06
906	14780	0.2570021596	1.6172e-06
906	14780	0.2570021596	1.6172e-06
906	14780	0.2570021596	1.6172e-06
906	14780	0.2570021596	1.6172e-06
906	14780	0.2570021596	1.6172e-06
906	14780	0.2570021596	1.6172e-06
906	14780	0.2570021596	1.6172e-06
906	14780	0.2570021596	1.6172e-06
906	14780	0.2570021596	1.6172e-06
906	14780	0.2570021596	1.6172e-06
906	14780	0.2570021596	1.6172e-06
906	14780	0.2570021596	1.6172e-06
906	14780	0.2570021596	1.6172e-06
906	14780	0.2570021596	1.6172e-06
906	14780	0.2570021596	1.6172e-06
906	14780	0.2570021596	1.6172e-06
906	14780	0.2570021596	1.6172e-06
906	14780	0.2570021596	1.6172e-06
906	14780	0.2570021596	1.6172e-06
906	14780	0.2570021596	1.6172e-06
906	14780	0.2570021596	1.6172e-06
906	14780	0.2570021596	1.6172e-06
906	14780	0.2570021596	1.6172e-06
906	14780	0.2570021596	1.6172e-06
906	14780	0.2570021596	1.6172e-06
906	14780	0.2570021596	1.6172e-06
906	14780	0.2570021596	1.6172e-06
906	14780	0.2570021596	1.6172e-06
906	14780	0.2570021596	1.6172e-06
906	14780	0.2570021596	1.6172e-06
906	14780	0.2570021596	1.6172e-06
906	14780	0.2570021596	1.6172e-06
906	14780	0.2570021596	1.6172e-06
906	14780	0.2570021596	1.6172e-06
906	14780	0.2570021596	1.6172e-06
906	14780	0.2570021596	1.6172e-06
906	14780	0.2570021596	1.6172e-06
906	14780	0.2570021596	1.6172e-06
906	14780	0.2570021596	1.6172e-06
906	14780	0.2570021596	1.6172e-06
906	14780	0.2570021596	1.6172e-06
906	14780	0.2570021596	1.6172e-06
906	14780	0.2570021596	1.6172e-06
906	14780	0.2570021596	1.6172e-06
906	14780	0.2570021596	1.6172e-06
906	14780	0.2570021596	1.6172e-06
906	14780	0.2570021596	1.6172e-06
906	14780	0.2570021596	1.6172e-06
906	14780	0.2570021596	1.6172e-06
907	131	0	0
1138	178	0.000000458	65535
1139	178	0.000000458	8940
1140	178	0.000000458	0.3725
1136	178	0.000000458	3
1143	178	0.000000458	1
1151	665	0.0070001912	0
1151	11737	0.2070005424	0
1151	22623	0.4070022536	0
1152	665	0.0070001912	0
1152	11737	0.2070005424	0
1152	22623	0.4070022536	0
1153	665	0.0070001912	0
1153	11737	0.2070005424	0
1153	22623	0.4070022536	0
1155	150	0.0000001228	0
1111	178	0.000000458	65535
1112	178	0.000000458	8940
1113	178	0.000000458	0.3725
1109	178	0.000000458	3
1116	178	0.000000458	1
1124	665	0.0070001912	0
1124	11737	0.2070005424	0
1124	22623	0.4070022536	0
1125	665	0.0070001912	0
1125	11737	0.2070005424	0
1125	22623	0.4070022536	0
1126	665	0.0070001912	0
1126	11737	0.2070005424	0
1126	22623	0.4070022536	0
1128	150	0.0000001228	0
1165	178	0.000000458	65535
1165	62344	1.2070005424	65535
1166	178	0.000000458	8940
1166	62344	1.2070005424	8940
1167	178	0.000000458	0.3725
1167	62344	1.2070005424	23.84
1163	178	0.000000458	3
1163	255	0.0000006744	1
1163	665	0.0070001912	1
1163	11737	0.2070005424	1
1163	22623	0.4070022536	1
1164	255	0.0000006744	2.164e-07
1164	665	0.0070001912	1.912e-07
1164	11737	0.2070005424	0.2000003512
1164	22623	0.4070022536	0.2000017112
1168	609	0.007	2000
1168	665	0.0070001912	2001
1168	665	0.0070001912	2002
1168	665	0.0070001912	2003
1168	665	0.0070001912	2004
1168	665	0.0070001912	2005
1168	665	0.0070001912	2006
1168	665	0.0070001912	2007
1168	665	0.0070001912	2008
1168	665	0.0070001912	2009
1168	665	0.0070001912	2010
1168	665	0.0070001912	2011
1168	11737	0.2070005424	2012
1168	11737	0.2070005424	2013
1168	11737	0.2070005424	2014
1168	11737	0.2070005424	2015
1168	11737	0.2070005424	2016
1168	11737	0.2070005424	2017
1168	11737	0.2070005424	2018
1168	11737	0.2070005424	2019
1168	11737	0.2070005424	2020
1168	11737	0.2070005424	2021
1168	11737	0.2070005424	2022
1168	11737	0.2070005424	2023
1168	11737	0.2070005424	2024
1168	11737	0.2070005424	2025
1168	11737	0.2070005424	2026
1168	11737	0.2070005424	2027
1168	11737	0.2070005424	2028
1168	11737	0.2070005424	2029
1168	11737	0.2070005424	2030
1168	11737	0.2070005424	2031
1168	11737	0.2070005424	2032
1168	11737	0.2070005424	2033
1168	11737	0.2070005424	2034
1168	11737	0.2070005424	2035
1168	11737	0.2070005424	2036
1168	11737	0.2070005424	2037
1168	11737	0.2070005424	2038
1168	11737	0.2070005424	2039
1168	11737	0.2070005424	2040
1168	11737	0.2070005424	2041
1168	11737	0.2070005424	2042
1168	11737	0.2070005424	2043
1168	11737	0.2070005424	2044
1168	11737	0.2070005424	2045
1168	11737	0.2070005424	2046
1168	11737	0.2070005424	2047
1168	11737	0.2070005424	2048
1168	11737	0.2070005424	2049
1168	11737	0.2070005424	2050
1168	11737	0.2070005424	2051
1168	11737	0.2070005424	2052
1168	11737	0.2070005424	2053
1168	11737	0.2070005424	2054
1168	11737	0.2070005424	2055
1168	11737	0.2070005424	2056
1168	11737	0.2070005424	2057
1168	11737	0.2070005424	2058
1168	11737	0.2070005424	2059
1168	11737	0.2070005424	2060
1168	11737	0.2070005424	2061
1168	11737	0.2070005424	2062
1168	11737	0.2070005424	2063
1168	11737	0.2070005424	2064
1168	11737	0.2070005424	2065
1168	11737	0.2070005424	2066
1168	11737	0.2070005424	2067
1168	11737	0.2070005424	2068
1168	11737	0.2070005424	2069
1168	11737	0.2070005424	2070
1168	11737	0.2070005424	2071
1168	11737	0.2070005424	2072
1168	11737	0.2070005424	2073
1168	11737	0.2070005424	2074
1168	11737	0.2070005424	2075
1168	11737	0.2070005424	2076
1168	11737	0.2070005424	2077
1168	11737	0.2070005424	2078
1168	11737	0.2070005424	2079
1168	11737	0.2070005424	2080
1168	11737	0.2070005424	2081
1168	11737	0.2070005424	2082
1168	11737	0.2070005424	2083
1168	11737	0.2070005424	2084
1168	11737	0.2070005424	2085
1168	11737	0.2070005424	2086
1168	11737	0.2070005424	2087
1168	11737	0.2070005424	2088
1168	11737	0.2070005424	2089
1168	11737	0.2070005424	2090
1168	11737	0.2070005424	2091
1168	11737	0.2070005424	2092
1168	11737	0.2070005424	2093
1168	11737	0.2070005424	2094
1168	11737	0.2070005424	2095
1168	11737	0.2070005424	2096
1168	11737	0.2070005424	2097
1168	11737	0.2070005424	2098
1168	11737	0.2070005424	2099
1168	11737	0.2070005424	2100
1168	11737	0.2070005424	2101
1168	11737	0.2070005424	2102
1168	11737	0.2070005424	2103
1168	11737	0.2070005424	2104
1168	11737	0.2070005424	2105
1168	11737	0.2070005424	2106
1168	11737	0.2070005424	2107
1172	273	0.0000007624	1
1172	287	0.0000008064	2
1171	273	0.0000007624	1
1171	287	0.0000008064	2
1173	255	0.0000006744	1
1173	265	0.0000007184	2
1174	609	0.007	2
1174	665	0.0070001912	0
1174	665	0.0070001912	2
1174	665	0.0070001912	4
1174	665	0.0070001912	6
1174	665	0.0070001912	8
1174	665	0.0070001912	10
1174	665	0.0070001912	12
1174	665	0.0070001912	14
1174	665	0.0070001912	16
1174	665	0.0070001912	18
1174	665	0.0070001912	20
1174	665	0.0070001912	22
1174	11737	0.2070005424	20
1174	11737	0.2070005424	18
1174	11737	0.2070005424	16
1174	11737	0.2070005424	14
1174	11737	0.2070005424	12
1174	11737	0.2070005424	10
1174	11737	0.2070005424	8
1174	11737	0.2070005424	6
1174	11737	0.2070005424	4
1174	11737	0.2070005424	2
1174	11737	0.2070005424	0
1174	11737	0.2070005424	2
1174	11737	0.2070005424	4
1174	11737	0.2070005424	6
1174	11737	0.2070005424	8
1174	11737	0.2070005424	10
1174	11737	0.2070005424	12
1174	11737	0.2070005424	14
1174	11737	0.2070005424	16
1174	11737	0.2070005424	18
1174	11737	0.2070005424	20
1174	11737	0.2070005424	22
1174	11737	0.2070005424	24
1174	11737	0.2070005424	26
1174	11737	0.2070005424	28
1174	11737	0.2070005424	30
1174	11737	0.2070005424	32
1174	11737	0.2070005424	34
1174	11737	0.2070005424	36
1174	11737	0.2070005424	38
1174	11737	0.2070005424	40
1174	11737	0.2070005424	42
1174	11737	0.2070005424	44
1174	11737	0.2070005424	46
1174	11737	0.2070005424	48
1174	11737	0.2070005424	50
1174	11737	0.2070005424	52
1174	11737	0.2070005424	54
1174	11737	0.2070005424	56
1174	11737	0.2070005424	58
1174	11737	0.2070005424	60
1174	11737	0.2070005424	62
1174	11737	0.2070005424	64
1174	11737	0.2070005424	66
1174	11737	0.2070005424	68
1174	11737	0.2070005424	70
1174	11737	0.2070005424	72
1174	11737	0.2070005424	74
1174	11737	0.2070005424	76
1174	11737	0.2070005424	78
1174	11737	0.2070005424	80
1174	11737	0.2070005424	82
1174	11737	0.2070005424	84
1174	11737	0.2070005424	86
1174	11737	0.2070005424	88
1174	11737	0.2070005424	90
1174	11737	0.2070005424	92
1174	11737	0.2070005424	94
1174	11737	0.2070005424	96
1174	11737	0.2070005424	98
1174	11737	0.2070005424	100
1174	11737	0.2070005424	102
1174	11737	0.2070005424	104
1174	11737	0.2070005424	106
1174	11737	0.2070005424	108
1174	11737	0.2070005424	110
1174	11737	0.2070005424	112
1174	11737	0.2070005424	114
1174	11737	0.2070005424	116
1174	11737	0.2070005424	118
1174	11737	0.2070005424	120
1174	11737	0.2070005424	122
1174	11737	0.2070005424	124
1174	11737	0.2070005424	126
1174	11737	0.2070005424	128
1174	11737	0.2070005424	130
1174	11737	0.2070005424	132
1174	11737	0.2070005424	134
1174	11737	0.2070005424	136
1174	11737	0.2070005424	138
1174	11737	0.2070005424	140
1174	11737	0.2070005424	142
1174	11737	0.2070005424	144
1174	11737	0.2070005424	146
1174	11737	0.2070005424	148
1174	11737	0.2070005424	150
1174	11737	0.2070005424	152
1174	11737	0.2070005424	154
1174	11737	0.2070005424	156
1174	11737	0.2070005424	158
1174	11737	0.2070005424	160
1174	11737	0.2070005424	162
1174	11737	0.2070005424	164
1174	11737	0.2070005424	166
1174	11737	0.2070005424	168
1174	11737	0.2070005424	170
1174	11737	0.2070005424	172
1174	11737	0.2070005424	174
1174	11737	0.2070005424	176
1174	11737	0.2070005424	178
1174	11737	0.2070005424	180
1174	11737	0.2070005424	182
1174	11737	0.2070005424	184
1174	11737	0.2070005424	186
1174	11737	0.2070005424	188
1174	11737	0.2070005424	190
1174	11737	0.2070005424	192
1174	22623	0.4070022536	190
1174	22623	0.4070022536	188
1174	22623	0.4070022536	186
1174	22623	0.4070022536	184
1174	22623	0.4070022536	182
1174	22623	0.4070022536	180
1174	22623	0.4070022536	178
1174	22623	0.4070022536	176
1174	22623	0.4070022536	174
1174	22623	0.4070022536	172
1174	22623	0.4070022536	170
1174	22623	0.4070022536	168
1174	22623	0.4070022536	166
1174	22623	0.4070022536	164
1174	22623	0.4070022536	162
1174	22623	0.4070022536	160
1174	22623	0.4070022536	158
1174	22623	0.4070022536	156
1174	22623	0.4070022536	154
1174	22623	0.4070022536	152
1174	22623	0.4070022536	150
1174	22623	0.4070022536	148
1174	22623	0.4070022536	146
1174	22623	0.4070022536	144
1174	22623	0.4070022536	142
1174	22623	0.4070022536	140
1174	22623	0.4070022536	138
1174	22623	0.4070022536	136
1174	22623	0.4070022536	134
1174	22623	0.4070022536	132
1174	22623	0.4070022536	130
1174	22623	0.4070022536	128
1174	22623	0.4070022536	126
1174	22623	0.4070022536	124
1174	22623	0.4070022536	122
1174	22623	0.4070022536	120
1174	22623	0.4070022536	118
1174	22623	0.4070022536	116
1174	22623	0.4070022536	114
1174	22623	0.4070022536	112
1174	22623	0.4070022536	110
1174	22623	0.4070022536	108
1174	22623	0.4070022536	106
1174	22623	0.4070022536	104
1174	22623	0.4070022536	102
1174	22623	0.4070022536	100
1174	22623	0.4070022536	98
1174	22623	0.4070022536	96
1174	22623	0.4070022536	94
1174	22623	0.4070022536	92
1174	22623	0.4070022536	90
1174	22623	0.4070022536	88
1174	22623	0.4070022536	86
1174	22623	0.4070022536	84
1174	22623	0.4070022536	82
1174	22623	0.4070022536	80
1174	22623	0.4070022536	78
1174	22623	0.4070022536	76
1174	22623	0.4070022536	74
1174	22623	0.4070022536	72
1174	22623	0.4070022536	70
1174	22623	0.4070022536	68
1174	22623	0.4070022536	66
1174	22623	0.4070022536	64
1174	22623	0.4070022536	62
1174	22623	0.4070022536	60
1174	22623	0.4070022536	58
1174	22623	0.4070022536	56
1174	22623	0.4070022536	54
1174	22623	0.4070022536	52
1174	22623	0.4070022536	50
1174	22623	0.4070022536	48
1174	22623	0.4070022536	46
1174	22623	0.4070022536	44
1174	22623	0.4070022536	42
1174	22623	0.4070022536	40
1174	22623	0.4070022536	38
1174	22623	0.4070022536	36
1174	22623	0.4070022536	34
1174	22623	0.4070022536	32
1174	22623	0.4070022536	30
1174	22623	0.4070022536	28
1174	22623	0.4070022536	26
1174	22623	0.4070022536	24
1174	22623	0.4070022536	22
1174	22623	0.4070022536	20
1174	22623	0.4070022536	18
1174	22623	0.4070022536	16
1174	22623	0.4070022536	14
1174	22623	0.4070022536	12
1174	22623	0.4070022536	10
1174	22623	0.4070022536	8
1174	22623	0.4070022536	6
1174	22623	0.4070022536	4
1174	22623	0.4070022536	2
1174	22623	0.4070022536	0
1175	609	0.007	2
1175	665	0.0070001912	0
1175	665	0.0070001912	2
1175	665	0.0070001912	4
1175	665	0.0070001912	6
1175	665	0.0070001912	8
1175	665	0.0070001912	10
1175	665	0.0070001912	12
1175	665	0.0070001912	14
1175	665	0.0070001912	16
1175	665	0.0070001912	18
1175	665	0.0070001912	20
1175	665	0.0070001912	22
1175	11737	0.2070005424	20
1175	11737	0.2070005424	18
1175	11737	0.2070005424	16
1175	11737	0.2070005424	14
1175	11737	0.2070005424	12
1175	11737	0.2070005424	10
1175	11737	0.2070005424	8
1175	11737	0.2070005424	6
1175	11737	0.2070005424	4
1175	11737	0.2070005424	2
1175	11737	0.2070005424	0
1175	11737	0.2070005424	2
1175	11737	0.2070005424	4
1175	11737	0.2070005424	6
1175	11737	0.2070005424	8
1175	11737	0.2070005424	10
1175	11737	0.2070005424	12
1175	11737	0.2070005424	14
1175	11737	0.2070005424	16
1175	11737	0.2070005424	18
1175	11737	0.2070005424	20
1175	11737	0.2070005424	22
1175	11737	0.2070005424	24
1175	11737	0.2070005424	26
1175	11737	0.2070005424	28
1175	11737	0.2070005424	30
1175	11737	0.2070005424	32
1175	11737	0.2070005424	34
1175	11737	0.2070005424	36
1175	11737	0.2070005424	38
1175	11737	0.2070005424	40
1175	11737	0.2070005424	42
1175	11737	0.2070005424	44
1175	11737	0.2070005424	46
1175	11737	0.2070005424	48
1175	11737	0.2070005424	50
1175	11737	0.2070005424	52
1175	11737	0.2070005424	54
1175	11737	0.2070005424	56
1175	11737	0.2070005424	58
1175	11737	0.2070005424	60
1175	11737	0.2070005424	62
1175	11737	0.2070005424	64
1175	11737	0.2070005424	66
1175	11737	0.2070005424	68
1175	11737	0.2070005424	70
1175	11737	0.2070005424	72
1175	11737	0.2070005424	74
1175	11737	0.2070005424	76
1175	11737	0.2070005424	78
1175	11737	0.2070005424	80
1175	11737	0.2070005424	82
1175	11737	0.2070005424	84
1175	11737	0.2070005424	86
1175	11737	0.2070005424	88
1175	11737	0.2070005424	90
1175	11737	0.2070005424	92
1175	11737	0.2070005424	94
1175	11737	0.2070005424	96
1175	11737	0.2070005424	98
1175	11737	0.2070005424	100
1175	11737	0.2070005424	102
1175	11737	0.2070005424	104
1175	11737	0.2070005424	106
1175	11737	0.2070005424	108
1175	11737	0.2070005424	110
1175	11737	0.2070005424	112
1175	11737	0.2070005424	114
1175	11737	0.2070005424	116
1175	11737	0.2070005424	118
1175	11737	0.2070005424	120
1175	11737	0.2070005424	122
1175	11737	0.2070005424	124
1175	11737	0.2070005424	126
1175	11737	0.2070005424	128
1175	11737	0.2070005424	130
1175	11737	0.2070005424	132
1175	11737	0.2070005424	134
1175	11737	0.2070005424	136
1175	11737	0.2070005424	138
1175	11737	0.2070005424	140
1175	11737	0.2070005424	142
1175	11737	0.2070005424	144
1175	11737	0.2070005424	146
1175	11737	0.2070005424	148
1175	11737	0.2070005424	150
1175	11737	0.2070005424	152
1175	11737	0.2070005424	154
1175	11737	0.2070005424	156
1175	11737	0.2070005424	158
1175	11737	0.2070005424	160
1175	11737	0.2070005424	162
1175	11737	0.2070005424	164
1175	11737	0.2070005424	166
1175	11737	0.2070005424	168
1175	11737	0.2070005424	170
1175	11737	0.2070005424	172
1175	11737	0.2070005424	174
1175	11737	0.2070005424	176
1175	11737	0.2070005424	178
1175	11737	0.2070005424	180
1175	11737	0.2070005424	182
1175	11737	0.2070005424	184
1175	11737	0.2070005424	186
1175	11737	0.2070005424	188
1175	11737	0.2070005424	190
1175	11737	0.2070005424	192
1175	22623	0.4070022536	190
1175	22623	0.4070022536	188
1175	22623	0.4070022536	186
1175	22623	0.4070022536	184
1175	22623	0.4070022536	182
1175	22623	0.4070022536	180
1175	22623	0.4070022536	178
1175	22623	0.4070022536	176
1175	22623	0.4070022536	174
1175	22623	0.4070022536	172
1175	22623	0.4070022536	170
1175	22623	0.4070022536	168
1175	22623	0.4070022536	166
1175	22623	0.4070022536	164
1175	22623	0.4070022536	162
1175	22623	0.4070022536	160
1175	22623	0.4070022536	158
1175	22623	0.4070022536	156
1175	22623	0.4070022536	154
1175	22623	0.4070022536	152
1175	22623	0.4070022536	150
1175	22623	0.4070022536	148
1175	22623	0.4070022536	146
1175	22623	0.4070022536	144
1175	22623	0.4070022536	142
1175	22623	0.4070022536	140
1175	22623	0.4070022536	138
1175	22623	0.4070022536	136
1175	22623	0.4070022536	134
1175	22623	0.4070022536	132
1175	22623	0.4070022536	130
1175	22623	0.4070022536	128
1175	22623	0.4070022536	126
1175	22623	0.4070022536	124
1175	22623	0.4070022536	122
1175	22623	0.4070022536	120
1175	22623	0.4070022536	118
1175	22623	0.4070022536	116
1175	22623	0.4070022536	114
1175	22623	0.4070022536	112
1175	22623	0.4070022536	110
1175	22623	0.4070022536	108
1175	22623	0.4070022536	106
[...]
788	68766	1.337	0
788	69028	1.342	0
788	69290	1.347	0
788	69504	1.352	0
788	69766	1.357	0
788	70008	1.362	0
788	70250	1.367	0
788	70512	1.372	0
788	70774	1.377	0
788	70988	1.382	0
788	71250	1.387	0
788	71492	1.392	0
788	71734	1.397	0
788	72012	1.402	0
788	72274	1.407	0
788	72488	1.412	0
788	72750	1.417	0
788	72992	1.422	0
788	73234	1.427	0
788	73496	1.432	0
788	73758	1.437	0
788	73972	1.442	0
788	74234	1.447	0
788	74476	1.452	0
788	74718	1.457	0
788	74980	1.462	0
788	75242	1.467	0
788	75456	1.472	0
788	75718	1.477	0
788	75960	1.482	0
788	76202	1.487	0
788	76464	1.492	0
788	76726	1.497	0
788	76956	1.502	0
788	77218	1.507	0
788	77460	1.512	0
788	77702	1.517	0
788	77964	1.522	0
788	78226	1.527	0
788	78440	1.532	0
788	78702	1.537	0
788	78944	1.542	0
788	79186	1.547	0
788	79448	1.552	0
788	79710	1.557	0
788	79924	1.562	0
788	80186	1.567	0
788	80428	1.572	0
788	80670	1.577	0
788	80932	1.582	0
788	81194	1.587	0
788	81408	1.592	0
788	81670	1.597	0
788	81928	1.602	0
788	82170	1.607	0
788	82432	1.612	0
788	82694	1.617	0
788	82908	1.622	0
788	83170	1.627	0
788	83412	1.632	0
788	83654	1.637	0
788	83916	1.642	0
788	84178	1.647	0
788	84392	1.652	0
788	84654	1.657	0
788	84896	1.662	0
788	85138	1.667	0
788	85400	1.672	0
788	85662	1.677	0
788	85876	1.682	0
788	86138	1.687	0
788	86380	1.692	0
788	86622	1.697	0
788	86900	1.702	0
788	87162	1.707	0
788	87376	1.712	0
788	87638	1.717	0
788	87880	1.722	0
788	88122	1.727	0
788	88384	1.732	0
788	88646	1.737	0
788	88860	1.742	0
788	89122	1.747	0
788	89364	1.752	0
788	89606	1.757	0
788	89868	1.762	0
788	90130	1.767	0
788	90344	1.772	0
788	90606	1.777	0
788	90848	1.782	0
788	91090	1.787	0
788	91352	1.792	0
788	91614	1.797	0
788	91844	1.802	0
788	92106	1.807	0
788	92348	1.812	0
788	92590	1.817	0
788	92852	1.822	0
788	93114	1.827	0
788	93328	1.832	0
788	93590	1.837	0
788	93832	1.842	0
788	94074	1.847	0
788	94336	1.852	0
788	94598	1.857	0
788	94812	1.862	0
788	95074	1.867	0
788	95316	1.872	0
788	95558	1.877	0
788	95820	1.882	0
788	96082	1.887	0
788	96296	1.892	0
788	96558	1.897	0
788	96816	1.902	0
788	97058	1.907	0
788	97320	1.912	0
788	97582	1.917	0
788	97796	1.922	0
788	98058	1.927	0
788	98300	1.932	0
788	98542	1.937	0
788	98804	1.942	0
788	99066	1.947	0
788	99280	1.952	0
788	99542	1.957	0
788	99784	1.962	0
788	100026	1.967	0
788	100288	1.972	0
788	100550	1.977	0
788	100764	1.982	0
788	101026	1.987	0
788	101268	1.992	0
788	101510	1.997	0
788	101788	2.002	0
788	102050	2.007	0
788	102264	2.012	0
788	102526	2.017	0
788	102768	2.022	0
788	103010	2.027	0
788	103272	2.032	0
788	103534	2.037	0
788	103748	2.042	0
788	104010	2.047	0
788	104252	2.052	0
788	104494	2.057	0
788	104756	2.062	0
788	105018	2.067	0
788	105232	2.072	0
788	105494	2.077	0
788	105736	2.082	0
788	105978	2.087	0
788	106240	2.092	0
788	106502	2.097	0
788	106732	2.102	0
788	106994	2.107	0
788	107236	2.112	0
788	107478	2.117	0
788	107740	2.122	0
788	108002	2.127	0
788	108216	2.132	0
788	108478	2.137	0
788	108720	2.142	0
788	108962	2.147	0
788	109224	2.152	0
788	109486	2.157	0
788	109700	2.162	0
788	109962	2.167	0
788	110204	2.172	0
788	110446	2.177	0
788	110708	2.182	0
788	110970	2.187	0
788	111184	2.192	0
788	111446	2.197	0
788	111704	2.202	0
788	111946	2.207	0
788	112208	2.212	0
788	112470	2.217	0
788	112684	2.222	0
788	112946	2.227	0
788	113188	2.232	0
788	113430	2.237	0
788	113692	2.242	0
788	113954	2.247	0
788	114168	2.252	0
788	114430	2.257	0
788	114672	2.262	0
788	114914	2.267	0
788	115176	2.272	0
788	115438	2.277	0
788	115652	2.282	0
788	115914	2.287	0
788	116156	2.292	0
788	116398	2.297	0
788	116676	2.302	0
788	116938	2.307	0
788	117152	2.312	0
788	117414	2.317	0
788	117656	2.322	0
788	117898	2.327	0
788	118160	2.332	0
788	118422	2.337	0
788	118636	2.342	0
788	118898	2.347	0
788	119140	2.352	0
788	119382	2.357	0
788	119644	2.362	0
788	119906	2.367	0
788	120120	2.372	0
788	120382	2.377	0
788	120624	2.382	0
788	120866	2.387	0
788	121128	2.392	0
788	121390	2.397	0
788	121620	2.402	0
788	121882	2.407	0
788	122124	2.412	0
788	122366	2.417	0
788	122628	2.422	0
788	122890	2.427	0
788	123104	2.432	0
788	123366	2.437	0
788	123608	2.442	0
788	123850	2.447	0
788	124112	2.452	0
788	124374	2.457	0
788	124588	2.462	0
788	124850	2.467	0
788	125092	2.472	0
788	125334	2.477	0
788	125596	2.482	0
788	125858	2.487	0
788	126072	2.492	0
788	126334	2.497	0
788	126592	2.502	0
788	126834	2.507	0
788	127096	2.512	0
788	127358	2.517	0
788	127572	2.522	0
788	127834	2.527	0
788	128076	2.532	0
788	128318	2.537	0
788	128580	2.542	0
788	128842	2.547	0
788	129056	2.552	0
788	129318	2.557	0
788	129560	2.562	0
788	129802	2.567	0
788	130064	2.572	0
788	130326	2.577	0
788	130540	2.582	0
788	130802	2.587	0
788	131044	2.592	0
788	131286	2.597	0
788	131564	2.602	0
788	131826	2.607	0
788	132040	2.612	0
788	132302	2.617	0
788	132544	2.622	0
788	132786	2.627	0
788	133048	2.632	0
788	133310	2.637	0
788	133524	2.642	0
788	133786	2.647	0
788	134028	2.652	0
788	134270	2.657	0
788	134532	2.662	0
788	134794	2.667	0
788	135008	2.672	0
788	135270	2.677	0
788	135512	2.682	0
788	135754	2.687	0
788	136016	2.692	0
788	136278	2.697	0
788	136508	2.702	0
788	136770	2.707	0
788	137012	2.712	0
788	137254	2.717	0
788	137516	2.722	0
788	137778	2.727	0
788	137992	2.732	0
788	138254	2.737	0
788	138496	2.742	0
788	138738	2.747	0
788	139000	2.752	0
788	139262	2.757	0
788	139476	2.762	0
788	139738	2.767	0
788	139980	2.772	0
788	140222	2.777	0
788	140484	2.782	0
788	140746	2.787	0
788	140960	2.792	0
788	141222	2.797	0
788	141480	2.802	0
788	141722	2.807	0
788	141984	2.812	0
788	142246	2.817	0
788	142460	2.822	0
788	142722	2.827	0
788	142964	2.832	0
788	143206	2.837	0
788	143468	2.842	0
788	143730	2.847	0
788	143944	2.852	0
788	144206	2.857	0
788	144448	2.862	0
788	144690	2.867	0
788	144952	2.872	0
788	145214	2.877	0
788	145428	2.882	0
788	145690	2.887	0
788	145932	2.892	0
794	1362	0.022	1
794	1619	0.027	2
794	1887	0.032	3
794	2211	0.037	4
794	2488	0.042	5
794	2829	0.047	6
794	3160	0.052	7
794	3545	0.057	8
794	3849	0.062	9
794	4173	0.067	10
794	5147	0.082	11
794	5472	0.087	12
794	5715	0.092	13
794	6043	0.097	14
794	6376	0.102	15
794	6705	0.107	16
794	6973	0.112	17
794	7246	0.117	18
794	7460	0.122	19
794	7722	0.127	20
794	7964	0.132	21
794	8206	0.137	22
794	8468	0.142	23
794	8730	0.147	24
794	8944	0.152	25
794	9206	0.157	26
794	9448	0.162	27
794	9690	0.167	28
794	9952	0.172	29
794	10214	0.177	30
794	10428	0.182	31
794	10690	0.187	32
794	10932	0.192	33
794	11174	0.197	34
794	11452	0.202	35
794	11714	0.207	36
794	12423	0.212	37
794	12685	0.217	38
794	12927	0.222	39
794	13169	0.227	40
794	13431	0.232	41
794	13693	0.237	42
794	13907	0.242	43
794	14169	0.247	44
794	14411	0.252	45
794	14653	0.257	46
794	15410	0.262	47
794	15672	0.267	48
794	15886	0.272	49
794	16148	0.277	50
794	16390	0.282	51
794	16632	0.287	52
794	16894	0.292	53
794	17156	0.297	54
794	17386	0.302	55
794	17648	0.307	56
794	17890	0.312	57
794	18132	0.317	58
794	18394	0.322	59
794	18656	0.327	60
794	18870	0.332	61
794	19132	0.337	62
794	19374	0.342	63
794	19616	0.347	64
794	19878	0.352	65
794	20140	0.357	66
794	20354	0.362	67
794	20616	0.367	68
794	20858	0.372	69
794	21100	0.377	70
794	21362	0.382	71
794	21624	0.387	72
794	21838	0.392	73
794	22100	0.397	74
794	22358	0.402	75
794	22600	0.407	76
794	22870	0.412	77
794	23132	0.417	78
794	23346	0.422	79
794	23608	0.427	80
794	23850	0.432	81
794	24092	0.437	82
794	24354	0.442	83
794	24616	0.447	84
794	24830	0.452	85
794	25092	0.457	86
794	25342	0.462	87
794	25584	0.467	88
794	25846	0.472	89
794	26108	0.477	90
794	26322	0.482	91
794	26584	0.487	92
794	26826	0.492	93
794	27068	0.497	94
794	27346	0.502	95
794	27608	0.507	96
794	27822	0.512	97
794	28084	0.517	98
794	28326	0.522	99
794	28568	0.527	100
794	28830	0.532	101
794	29092	0.537	102
794	29306	0.542	103
794	29568	0.547	104
794	29810	0.552	105
794	30052	0.557	106
794	30314	0.562	107
794	30576	0.567	108
794	30790	0.572	109
794	31052	0.577	110
794	31294	0.582	111
794	31536	0.587	112
794	31798	0.592	113
794	32060	0.597	114
794	32290	0.602	115
794	32552	0.607	116
794	32794	0.612	117
794	33036	0.617	118
794	33298	0.622	119
794	33560	0.627	120
794	33774	0.632	121
794	34036	0.637	122
794	34278	0.642	123
794	34520	0.647	124
794	34782	0.652	125
794	35044	0.657	126
794	35258	0.662	127
794	35520	0.667	128
794	35762	0.672	129
794	36004	0.677	130
794	36266	0.682	131
794	36528	0.687	132
794	36742	0.692	133
794	37004	0.697	134
794	37262	0.702	135
794	37504	0.707	136
794	37766	0.712	137
794	38028	0.717	138
794	38242	0.722	139
794	38504	0.727	140
794	38746	0.732	141
794	38988	0.737	142
794	39250	0.742	143
794	39512	0.747	144
794	39726	0.752	145
794	39988	0.757	146
794	40230	0.762	147
794	40472	0.767	148
794	40734	0.772	149
794	40996	0.777	150
794	41210	0.782	151
794	41472	0.787	152
794	41714	0.792	153
794	41956	0.797	154
794	42234	0.802	155
794	42496	0.807	156
794	42710	0.812	157
794	42972	0.817	158
794	43214	0.822	159
794	43456	0.827	160
794	43718	0.832	161
794	43980	0.837	162
794	44194	0.842	163
794	44456	0.847	164
794	44698	0.852	165
794	44940	0.857	166
794	45202	0.862	167
794	45464	0.867	168
794	45678	0.872	169
794	45940	0.877	170
794	46182	0.882	171
794	46424	0.887	172
794	46686	0.892	173
794	46948	0.897	174
794	47178	0.902	175
794	47440	0.907	176
794	47682	0.912	177
794	47924	0.917	178
794	48186	0.922	179
794	48448	0.927	180
794	48662	0.932	181
794	48924	0.937	182
794	49166	0.942	183
794	49408	0.947	184
794	49670	0.952	185
794	49932	0.957	186
794	50146	0.962	187
794	50408	0.967	188
794	50650	0.972	189
794	50892	0.977	190
794	51154	0.982	191
794	51416	0.987	192
794	51630	0.992	193
794	51892	0.997	194
794	52150	1.002	195
794	52392	1.007	196
794	52654	1.012	197
794	52916	1.017	198
794	53130	1.022	199
794	53392	1.027	200
794	53634	1.032	201
794	53876	1.037	202
794	54138	1.042	203
794	54400	1.047	204
794	54614	1.052	205
794	54876	1.057	206
794	55118	1.062	207
794	55360	1.067	208
794	55622	1.072	209
794	55884	1.077	210
794	56098	1.082	211
794	56360	1.087	212
794	56602	1.092	213
794	56844	1.097	214
794	57122	1.102	215
794	57384	1.107	216
794	57598	1.112	217
794	57860	1.117	218
794	58102	1.122	219
794	58344	1.127	220
794	58606	1.132	221
794	58868	1.137	222
794	59082	1.142	223
794	59344	1.147	224
794	59586	1.152	225
794	59828	1.157	226
794	60090	1.162	227
794	60352	1.167	228
794	60566	1.172	229
794	60828	1.177	230
794	61070	1.182	231
794	61312	1.187	232
794	61574	1.192	233
794	61836	1.197	234
794	62066	1.202	235
794	62328	1.207	236
794	62571	1.212	237
794	62813	1.217	238
794	63075	1.222	239
794	63337	1.227	240
794	63551	1.232	241
794	63813	1.237	242
794	64055	1.242	243
794	64297	1.247	244
794	64559	1.252	245
794	64821	1.257	246
794	65036	1.262	247
794	65298	1.267	248
794	65540	1.272	249
794	65782	1.277	250
794	66044	1.282	251
794	66306	1.287	252
794	66520	1.292	253
794	66782	1.297	254
794	67040	1.302	255
794	67282	1.307	256
794	67544	1.312	257
794	67806	1.317	258
794	68020	1.322	259
794	68282	1.327	260
794	68524	1.332	261
794	68766	1.337	262
794	69028	1.342	263
794	69290	1.347	264
794	69504	1.352	265
794	69766	1.357	266
794	70008	1.362	267
794	70250	1.367	268
794	70512	1.372	269
794	70774	1.377	270
794	70988	1.382	271
794	71250	1.387	272
794	71492	1.392	273
794	71734	1.397	274
794	72012	1.402	275
794	72274	1.407	276
794	72488	1.412	277
794	72750	1.417	278
794	72992	1.422	279
794	73234	1.427	280
794	73496	1.432	281
794	73758	1.437	282
794	73972	1.442	283
794	74234	1.447	284
794	74476	1.452	285
794	74718	1.457	286
794	74980	1.462	287
794	75242	1.467	288
794	75456	1.472	289
794	75718	1.477	290
794	75960	1.482	291
794	76202	1.487	292
794	76464	1.492	293
794	76726	1.497	294
794	76956	1.502	295
794	77218	1.507	296
794	77460	1.512	297
794	77702	1.517	298
794	77964	1.522	299
794	78226	1.527	300
794	78440	1.532	301
794	78702	1.537	302
794	78944	1.542	303
794	79186	1.547	304
794	79448	1.552	305
794	79710	1.557	306
794	79924	1.562	307
794	80186	1.567	308
794	80428	1.572	309
794	80670	1.577	310
794	80932	1.582	311
794	81194	1.587	312
794	81408	1.592	313
794	81670	1.597	314
794	81928	1.602	315
794	82170	1.607	316
794	82432	1.612	317
794	82694	1.617	318
794	82908	1.622	319
794	83170	1.627	320
794	83412	1.632	321
794	83654	1.637	322
794	83916	1.642	323
794	84178	1.647	324
794	84392	1.652	325
794	84654	1.657	326
794	84896	1.662	327
794	85138	1.667	328
794	85400	1.672	329
794	85662	1.677	330
794	85876	1.682	331
794	86138	1.687	332
794	86380	1.692	333
794	86622	1.697	334
794	86900	1.702	335
794	87162	1.707	336
794	87376	1.712	337
794	87638	1.717	338
794	87880	1.722	339
794	88122	1.727	340
794	88384	1.732	341
794	88646	1.737	342
794	88860	1.742	343
794	89122	1.747	344
794	89364	1.752	345
794	89606	1.757	346
794	89868	1.762	347
794	90130	1.767	348
794	90344	1.772	349
794	90606	1.777	350
794	90848	1.782	351
794	91090	1.787	352
794	91352	1.792	353
794	91614	1.797	354
794	91844	1.802	355
794	92106	1.807	356
794	92348	1.812	357
794	92590	1.817	358
794	92852	1.822	359
794	93114	1.827	360
794	93328	1.832	361
794	93590	1.837	362
794	93832	1.842	363
794	94074	1.847	364
794	94336	1.852	365
794	94598	1.857	366
794	94812	1.862	367
794	95074	1.867	368
794	95316	1.872	369
794	95558	1.877	370
794	95820	1.882	371
794	96082	1.887	372
794	96296	1.892	373
794	96558	1.897	374
794	96816	1.902	375
794	97058	1.907	376
794	97320	1.912	377
794	97582	1.917	378
794	97796	1.922	379
794	98058	1.927	380
794	98300	1.932	381
794	98542	1.937	382
794	98804	1.942	383
794	99066	1.947	384
794	99280	1.952	385
794	99542	1.957	386
794	99784	1.962	387
794	100026	1.967	388
794	100288	1.972	389
794	100550	1.977	390
794	100764	1.982	391
794	101026	1.987	392
794	101268	1.992	393
794	101510	1.997	394
794	101788	2.002	395
794	102050	2.007	396
794	102264	2.012	397
794	102526	2.017	398
794	102768	2.022	399
794	103010	2.027	400
794	103272	2.032	401
794	103534	2.037	402
794	103748	2.042	403
794	104010	2.047	404
794	104252	2.052	405
794	104494	2.057	406
794	104756	2.062	407
794	105018	2.067	408
794	105232	2.072	409
794	105494	2.077	410
794	105736	2.082	411
794	105978	2.087	412
794	106240	2.092	413
794	106502	2.097	414
794	106732	2.102	415
794	106994	2.107	416
794	107236	2.112	417
794	107478	2.117	418
794	107740	2.122	419
794	108002	2.127	420
794	108216	2.132	421
794	108478	2.137	422
794	108720	2.142	423
794	108962	2.147	424
794	109224	2.152	425
794	109486	2.157	426
794	109700	2.162	427
794	109962	2.167	428
794	110204	2.172	429
794	110446	2.177	430
794	110708	2.182	431
794	110970	2.187	432
794	111184	2.192	433
794	111446	2.197	434
794	111704	2.202	435
794	111946	2.207	436
794	112208	2.212	437
794	112470	2.217	438
794	112684	2.222	439
794	112946	2.227	440
794	113188	2.232	441
794	113430	2.237	442
794	113692	2.242	443
794	113954	2.247	444
794	114168	2.252	445
794	114430	2.257	446
794	114672	2.262	447
794	114914	2.267	448
794	115176	2.272	449
794	115438	2.277	450
794	115652	2.282	451
794	115914	2.287	452
794	116156	2.292	453
794	116398	2.297	454
794	116676	2.302	455
794	116938	2.307	456
794	117152	2.312	457
794	117414	2.317	458
794	117656	2.322	459
794	117898	2.327	460
794	118160	2.332	461
794	118422	2.337	462
794	118636	2.342	463
794	118898	2.347	464
794	119140	2.352	465
794	119382	2.357	466
794	119644	2.362	467
794	119906	2.367	468
794	120120	2.372	469
794	120382	2.377	470
794	120624	2.382	471
794	120866	2.387	472
794	121128	2.392	473
794	121390	2.397	474
794	121620	2.402	475
794	121882	2.407	476
794	122124	2.412	477
794	122366	2.417	478
794	122628	2.422	479
794	122890	2.427	480
794	123104	2.432	481
794	123366	2.437	482
794	123608	2.442	483
794	123850	2.447	484
794	124112	2.452	485
794	124374	2.457	486
794	124588	2.462	487
794	124850	2.467	488
794	125092	2.472	489
794	125334	2.477	490
794	125596	2.482	491
794	125858	2.487	492
794	126072	2.492	493
794	126334	2.497	494
794	126592	2.502	495
794	126834	2.507	496
794	127096	2.512	497
794	127358	2.517	498
794	127572	2.522	499
794	127834	2.527	500
794	128076	2.532	501
794	128318	2.537	502
794	128580	2.542	503
794	128842	2.547	504
794	129056	2.552	505
794	129318	2.557	506
794	129560	2.562	507
794	129802	2.567	508
794	130064	2.572	509
794	130326	2.577	510
794	130540	2.582	511
794	130802	2.587	512
794	131044	2.592	513
794	131286	2.597	514
794	131564	2.602	515
794	131826	2.607	516
794	132040	2.612	517
794	132302	2.617	518
794	132544	2.622	519
794	132786	2.627	520
794	133048	2.632	521
794	133310	2.637	522
794	133524	2.642	523
794	133786	2.647	524
794	134028	2.652	525
794	134270	2.657	526
794	134532	2.662	527
794	134794	2.667	528
794	135008	2.672	529
794	135270	2.677	530
794	135512	2.682	531
794	135754	2.687	532
794	136016	2.692	533
794	136278	2.697	534
794	136508	2.702	535
794	136770	2.707	536
794	137012	2.712	537
794	137254	2.717	538
794	137516	2.722	539
794	137778	2.727	540
794	137992	2.732	541
794	138254	2.737	542
794	138496	2.742	543
794	138738	2.747	544
794	139000	2.752	545
794	139262	2.757	546
794	139476	2.762	547
794	139738	2.767	548
794	139980	2.772	549
794	140222	2.777	550
794	140484	2.782	551
794	140746	2.787	552
794	140960	2.792	553
794	141222	2.797	554
794	141480	2.802	555
794	141722	2.807	556
794	141984	2.812	557
794	142246	2.817	558
794	142460	2.822	559
794	142722	2.827	560
794	142964	2.832	561
794	143206	2.837	562
794	143468	2.842	563
794	143730	2.847	564
794	143944	2.852	565
794	144206	2.857	566
794	144448	2.862	567
794	144690	2.867	568
794	144952	2.872	569
794	145214	2.877	570
794	145428	2.882	571
794	145690	2.887	572
794	145932	2.892	573
795	4482	0.072	1
795	4792	0.077	2
807	0	0	1
813	5990	0.096236986774	44
816	5990	0.096236986774	45
817	5993	0.096236986774	45
817	6321	0.101	47
818	2502	0.042	0
818	2710	0.044	0
818	2841	0.047	0
818	3028	0.049	0
818	6232	0.099	0
818	6283	0.1	0
818	6677	0.106	0
818	6679	0.106	0
819	6317	0.101	0
820	2502	0.042	0
820	2841	0.047	0
820	6045	0.097	0
820	6326	0.101	0
824	2710	0.044	1
824	3028	0.049	2
839	0	0	1
1319	1087	0.016038050947	7504
1320	1087	0.016038050947	7504
1322	1087	0.016038050947	0
1333	1087	0.016038050947	0
1343	1334	0.021540784608	7504
1344	1334	0.021540784608	7504
1346	1334	0.021540784608	0
1357	1334	0.021540784608	0
1367	1590	0.02660460389	7504
1368	1590	0.02660460389	7504
1370	1590	0.02660460389	0
1381	1590	0.02660460389	0
1391	1627	0.027878343419	7504
1392	1627	0.027878343419	7504
1394	1627	0.027878343419	0
1405	1627	0.027878343419	0
1415	1671	0.028371024961	7504
1416	1671	0.028371024961	7504
1418	1671	0.028371024961	0
1429	1671	0.028371024961	0
1439	1922	0.032649362497	7504
1440	1922	0.032649362497	7504
1442	1922	0.032649362497	0
1453	1922	0.032649362497	0
1463	2011	0.034516076937	7504
1464	2011	0.034516076937	7504
1466	2011	0.034516076937	0
1477	2011	0.034516076937	0
1487	2120	0.036651693161	7504
1488	2120	0.036651693161	7504
1490	2120	0.036651693161	0
1501	2120	0.036651693161	0
1511	2394	0.040940929686	7504
1512	2394	0.040940929686	7504
1514	2394	0.040940929686	0
1525	2394	0.040940929686	0
1535	2921	0.04821039218	7504
1536	2921	0.04821039218	7504
1538	2921	0.04821039218	0
1549	2921	0.04821039218	0
1559	3395	0.055890854003	7504
1560	3395	0.055890854003	7504
1562	3395	0.055890854003	0
1573	3395	0.055890854003	0
1583	3641	0.057963030662	7504
1584	3641	0.057963030662	7504
1586	3641	0.057963030662	0
1597	3641	0.057963030662	0
1607	3996	0.063891002787	7504
1608	3996	0.063891002787	7504
1610	3996	0.063891002787	0
1621	3996	0.063891002787	0
1631	4038	0.064770889489	7504
1632	4038	0.064770889489	7504
1634	4038	0.064770889489	0
1645	4038	0.064770889489	0
1655	4957	0.079275280847	7504
1656	4957	0.079275280847	7504
1658	4957	0.079275280847	0
1669	4957	0.079275280847	0
1679	5166	0.082257983647	7504
1680	5166	0.082257983647	7504
1682	5166	0.082257983647	0
1693	5166	0.082257983647	0
1703	5525	0.088577514598	7504
1704	5525	0.088577514598	7504
1706	5525	0.088577514598	0
1717	5525	0.088577514598	0
1727	5533	0.088784986169	7504
1728	5533	0.088784986169	7504
1730	5533	0.088784986169	0
1741	5533	0.088784986169	0
1751	5987	0.096236986774	7504
1752	5987	0.096236986774	7504
1754	5987	0.096236986774	0
1765	5987	0.096236986774	0
1775	5995	0.09658703896	7504
1776	5995	0.09658703896	7504
1778	5995	0.09658703896	0
1789	5995	0.09658703896	0
