version 2
run CAIN-82-20200508-16:33:49-13042
attr configname CAIN
attr datetime 20200508-16:33:49
attr dist 200
attr experiment CAIN
attr extAllocType "\"RANDOM_ALLOC\""
attr inifile omnetpp.ini
attr iterationvars "$numUe=20, $pwr=-50, $dist=200, $mob=\"./movements/RWPRPGM-0.5.movements\", $extAllocType=\"RANDOM_ALLOC\""
attr iterationvars2 "$numUe=20, $pwr=-50, $dist=200, $mob=\"./movements/RWPRPGM-0.5.movements\", $extAllocType=\"RANDOM_ALLOC\", $repetition=2"
attr measurement "$numUe=20, $pwr=-50, $dist=200, $mob=\"./movements/RWPRPGM-0.5.movements\", $extAllocType=\"RANDOM_ALLOC\""
attr mob "\"./movements/RWPRPGM-0.5.movements\""
attr network lte.simulations.networks.CAIN
attr numUe 20
attr processid 13042
attr pwr -50
attr repetition 2
attr replication #2
attr resultdir results
attr runnumber 82
attr seedset 2
param **.**.amcMode "\"AUTO\""
param **.amcMode "\"D2D\""
param **.cainNetwork true
param **.channelControl.alpha 1.0
param **.channelControl.carrierFrequency 2100e+6Hz
param **.channelControl.pMax 10W
param **.d2dCqi 7
param **.deployer.numRbDl 50
param **.deployer.numRbUl 50
param **.distThresh ${dist=200}
param **.fbDelay 1
param **.feedbackComputation "xmldoc(\"config_channel.xml\")"
param **.mobility.constraintAreaMaxX 1000m
param **.mobility.constraintAreaMaxY 1000m
param **.mobility.constraintAreaMaxZ 0m
param **.mobility.constraintAreaMinX 0m
param **.mobility.constraintAreaMinY 0m
param **.mobility.constraintAreaMinZ 0m
param **.nic.phy.channelModel "xmldoc(\"config_channel.xml\")"
param **.numBands 50
param **.pwrThresh "${pwr= -50}"
param **.qtdThresh 3
param **.rbAllocationType "\"localized\""
param **.routingRecorder.enabled false
param **.tcpApp[*].tClose -1s
param **.ueD2DTx[*].mobility.changeAngleBy "normal(0deg, 30deg)"
param **.ueD2DTx[*].mobility.changeInterval "normal(5s, 0.1s)"
param **.ueD2DTx[*].mobility.nodeId -1
param **.ueD2DTx[*].mobility.speed "normal(2mps, 0.01mps)"
param **.ueD2DTx[*].mobility.traceFile "${mob=\"./movements/RWP-0.0.movements\",\"./movements/RWP-0.5.movements\",\"./movements/RPGM-0.0.movements\",\"./movements/RPGM-0.5.movements\",\"./movements/RWPRPGM-0.0.movements\",\"./movements/RWPRPGM-0.5.movements\"}"
param **.ueD2DTx[*].mobilityType "\"BonnMotionMobility\""
param **.usePreconfiguredTxParams false
param *.eNodeB*.numX2Apps 1
param *.eNodeB*.x2App[*].server.localPort "5000 + ancestorIndex(1)"
param *.eNodeB.d2dCapable false
param *.eNodeB.mobility.initFromDisplayString false
param *.eNodeB.mobility.initialX 300m
param *.eNodeB.mobility.initialY 300m
param *.eNodeB.nic.phy.enableD2DCqiReporting true
param *.eNodeB.txPower 19952.62315mw
param *.eNodeB.x2App[0].client.connectAddress "\"eNodeB1%x2ppp0\""
param *.eNodeB1.d2dCapable true
param *.eNodeB1.mobility.initFromDisplayString false
param *.eNodeB1.mobility.initialX 700m
param *.eNodeB1.mobility.initialY 300m
param *.eNodeB1.nic.phy.enableD2DCqiReporting true
param *.eNodeB1.txPower 19952.62315mw
param *.eNodeB1.x2App[0].client.connectAddress "\"eNodeB%x2ppp0\""
param *.extCell[*].bandAllocationType "${extAllocType=\"FULL_ALLOC\",\"RANDOM_ALLOC\",\"CONTIGUOUS_ALLOC\"}"
param *.extCell[*].bandUtilization 0.5
param *.extCell[*].txDirection "\"ANISOTROPIC\""
param *.extCell[*].txPower 20
param *.extCell[0].position_x 100m
param *.extCell[0].position_y 600m
param *.extCell[0].txAngle 315
param *.extCell[1].position_x 600m
param *.extCell[1].position_y 600m
param *.extCell[1].txAngle 225
param *.numExtCells 2
param *.numUeCell 0
param *.numUeD2DRx 1
param *.numUeD2DTx 1
param *.ue*.macCellId 1
param *.ue*.masterId 1
param *.ue*.mobility.initFromDisplayString false
param *.ue*[0].macCellId 1
param *.ue*[0].masterId 1
param *.ue*[0].mobility.initFromDisplayString false
param *.ueD2D*.numTcpApps 1
param *.ueD2D*[*].d2dCapable true
param *.ueD2D*[0].d2dCapable false
param *.ueD2D*[0].numTcpApps 1
param *.ueD2DRx[0].mobility.initialX 310m
param *.ueD2DRx[0].mobility.initialY 350m
param *.ueD2DRx[0].tcpApp[*].localPort 1000
param *.ueD2DRx[0].tcpApp[*].typename "\"TCPSinkApp\""
param *.ueD2DTx*.nic.d2dPeerAddresses "\"ueD2DTx[1]\""
param *.ueD2DTx*.tcpApp[*].connectAddress "\"ueD2DTx[0]\""
param *.ueD2DTx*.tcpApp[*].localAddress "\"ueD2DTx\""
param *.ueD2DTx*.tcpApp[*].localPort 1000
param *.ueD2DTx*.tcpApp[*].sendBytes 1GiB
param *.ueD2DTx*.tcpApp[*].typename "\"TCPSessionApp\""
param *.ueD2DTx*.tcpApp[0].active true
param *.ueD2DTx*.tcpApp[0].connectPort 1000
param *.ueD2DTx*.tcpApp[0].tOpen uniform(0.010s,0.1s)
param *.ueD2DTx*.tcpApp[0].tSend uniform(0.15s,0.5s)
param *.ueD2DTx[0].mobility.initialX 290m
param *.ueD2DTx[0].mobility.initialY 350m
param *.ueD2DTx[0].tcpApp[*].localPort 1000
param *.ueD2DTx[0].tcpApp[*].sendBytes 1GiB
param *.ueD2DTx[0].tcpApp[*].typename "\"TCPSessionApp\""
param *.ueD2DTx[0].tcpApp[0].active true
param *.ueD2DTx[0].tcpApp[0].connectAddress "\"ueD2DRx[0]\""
param *.ueD2DTx[0].tcpApp[0].connectPort 1000
param *.ueD2DTx[0].tcpApp[0].localAddress "\"ueD2DTx[0]\""
param *.ueD2DTx[0].tcpApp[0].tOpen uniform(0.010s,0.1s)
param *.ueD2DTx[0].tcpApp[0].tSend uniform(0.15s,0.5s)
param *.ueD2DTx[1].mobility.initialX 690m
param *.ueD2DTx[1].mobility.initialY 250m

vector 8  CAIN.server.ppp[0].queue  queueLength:vector  ETV
attr interpolationmode  sample-hold
attr title  "queue length, vector"
vector 9  CAIN.server.ppp[0].ppp  txState:vector  ETV
attr interpolationmode  sample-hold
attr title  "tx state, vector"
vector 24  CAIN.router.ppp[0].queue  queueLength:vector  ETV
attr interpolationmode  sample-hold
attr title  "queue length, vector"
vector 25  CAIN.router.ppp[0].ppp  txState:vector  ETV
attr interpolationmode  sample-hold
attr title  "tx state, vector"
vector 35  CAIN.router.ppp[1].queue  queueLength:vector  ETV
attr interpolationmode  sample-hold
attr title  "queue length, vector"
vector 36  CAIN.router.ppp[1].ppp  txState:vector  ETV
attr interpolationmode  sample-hold
attr title  "tx state, vector"
vector 56  CAIN.pgw.ppp[0].queue  queueLength:vector  ETV
attr interpolationmode  sample-hold
attr title  "queue length, vector"
vector 57  CAIN.pgw.ppp[0].ppp  txState:vector  ETV
attr interpolationmode  sample-hold
attr title  "tx state, vector"
vector 67  CAIN.pgw.ppp[1].queue  queueLength:vector  ETV
attr interpolationmode  sample-hold
attr title  "queue length, vector"
vector 68  CAIN.pgw.ppp[1].ppp  txState:vector  ETV
attr interpolationmode  sample-hold
attr title  "tx state, vector"
vector 78  CAIN.pgw.pppInterface.queue  queueLength:vector  ETV
attr interpolationmode  sample-hold
attr title  "queue length, vector"
vector 79  CAIN.pgw.pppInterface.ppp  txState:vector  ETV
attr interpolationmode  sample-hold
attr title  "tx state, vector"
vector 120  CAIN.eNodeB.pppIf.queue  queueLength:vector  ETV
attr interpolationmode  sample-hold
attr title  "queue length, vector"
vector 121  CAIN.eNodeB.pppIf.ppp  txState:vector  ETV
attr interpolationmode  sample-hold
attr title  "tx state, vector"
vector 131  CAIN.eNodeB.x2ppp[0].queue  queueLength:vector  ETV
attr interpolationmode  sample-hold
attr title  "queue length, vector"
vector 132  CAIN.eNodeB.x2ppp[0].ppp  txState:vector  ETV
attr interpolationmode  sample-hold
attr title  "tx state, vector"
vector 178  CAIN.eNodeB1.pppIf.queue  queueLength:vector  ETV
attr interpolationmode  sample-hold
attr title  "queue length, vector"
vector 179  CAIN.eNodeB1.pppIf.ppp  txState:vector  ETV
attr interpolationmode  sample-hold
attr title  "tx state, vector"
vector 189  CAIN.eNodeB1.x2ppp[0].queue  queueLength:vector  ETV
attr interpolationmode  sample-hold
attr title  "queue length, vector"
vector 190  CAIN.eNodeB1.x2ppp[0].ppp  txState:vector  ETV
attr interpolationmode  sample-hold
attr title  "tx state, vector"
vector 231  CAIN.ueD2DTx[0].nic.phy  servingCell:vector  ETV
attr source  servingCell
attr title  "ID of the serving eNodeB for the UE, vector"
attr unit  ""
vector 263  CAIN.ueD2DTx[1].nic.phy  servingCell:vector  ETV
attr source  servingCell
attr title  "ID of the serving eNodeB for the UE, vector"
attr unit  ""
vector 295  CAIN.ueD2DTx[2].nic.phy  servingCell:vector  ETV
attr source  servingCell
attr title  "ID of the serving eNodeB for the UE, vector"
attr unit  ""
vector 327  CAIN.ueD2DTx[3].nic.phy  servingCell:vector  ETV
attr source  servingCell
attr title  "ID of the serving eNodeB for the UE, vector"
attr unit  ""
vector 359  CAIN.ueD2DTx[4].nic.phy  servingCell:vector  ETV
attr source  servingCell
attr title  "ID of the serving eNodeB for the UE, vector"
attr unit  ""
vector 391  CAIN.ueD2DTx[5].nic.phy  servingCell:vector  ETV
attr source  servingCell
attr title  "ID of the serving eNodeB for the UE, vector"
attr unit  ""
vector 423  CAIN.ueD2DTx[6].nic.phy  servingCell:vector  ETV
attr source  servingCell
attr title  "ID of the serving eNodeB for the UE, vector"
attr unit  ""
vector 455  CAIN.ueD2DTx[7].nic.phy  servingCell:vector  ETV
attr source  servingCell
attr title  "ID of the serving eNodeB for the UE, vector"
attr unit  ""
vector 487  CAIN.ueD2DTx[8].nic.phy  servingCell:vector  ETV
attr source  servingCell
attr title  "ID of the serving eNodeB for the UE, vector"
attr unit  ""
vector 519  CAIN.ueD2DTx[9].nic.phy  servingCell:vector  ETV
attr source  servingCell
attr title  "ID of the serving eNodeB for the UE, vector"
attr unit  ""
vector 551  CAIN.ueD2DTx[10].nic.phy  servingCell:vector  ETV
attr source  servingCell
attr title  "ID of the serving eNodeB for the UE, vector"
attr unit  ""
vector 583  CAIN.ueD2DTx[11].nic.phy  servingCell:vector  ETV
attr source  servingCell
attr title  "ID of the serving eNodeB for the UE, vector"
attr unit  ""
vector 615  CAIN.ueD2DTx[12].nic.phy  servingCell:vector  ETV
attr source  servingCell
attr title  "ID of the serving eNodeB for the UE, vector"
attr unit  ""
vector 647  CAIN.ueD2DTx[13].nic.phy  servingCell:vector  ETV
attr source  servingCell
attr title  "ID of the serving eNodeB for the UE, vector"
attr unit  ""
vector 679  CAIN.ueD2DTx[14].nic.phy  servingCell:vector  ETV
attr source  servingCell
attr title  "ID of the serving eNodeB for the UE, vector"
attr unit  ""
vector 711  CAIN.ueD2DTx[15].nic.phy  servingCell:vector  ETV
attr source  servingCell
attr title  "ID of the serving eNodeB for the UE, vector"
attr unit  ""
vector 743  CAIN.ueD2DTx[16].nic.phy  servingCell:vector  ETV
attr source  servingCell
attr title  "ID of the serving eNodeB for the UE, vector"
attr unit  ""
vector 775  CAIN.ueD2DTx[17].nic.phy  servingCell:vector  ETV
attr source  servingCell
attr title  "ID of the serving eNodeB for the UE, vector"
attr unit  ""
vector 807  CAIN.ueD2DTx[18].nic.phy  servingCell:vector  ETV
attr source  servingCell
attr title  "ID of the serving eNodeB for the UE, vector"
attr unit  ""
vector 839  CAIN.ueD2DTx[19].nic.phy  servingCell:vector  ETV
attr source  servingCell
attr title  "ID of the serving eNodeB for the UE, vector"
attr unit  ""
vector 863  CAIN.eNodeB.sctp  "Throughput of Association 3"  ETV
vector 885  CAIN.eNodeB1.sctp  "Throughput of Association 4"  ETV
vector 907  CAIN.eNodeB.sctp  "Throughput of Association 1"  ETV
vector 927  CAIN.eNodeB.sctp  "Fast Recovery State 1:10.0.5.2"  ETV
vector 956  CAIN.eNodeB1.sctp  "Throughput of Association 2"  ETV
vector 976  CAIN.eNodeB1.sctp  "Fast Recovery State 2:10.0.5.1"  ETV
vector 128  CAIN.eNodeB.x2ppp[0].queue  rcvdPk:vector(packetBytes)  ETV
attr interpolationmode  none
attr title  "received packets, vector(packetBytes)"
vector 130  CAIN.eNodeB.x2ppp[0].queue  queueingTime:vector  ETV
attr interpolationmode  none
attr title  "queueing time, vector"
vector 186  CAIN.eNodeB1.x2ppp[0].queue  rcvdPk:vector(packetBytes)  ETV
attr interpolationmode  none
attr title  "received packets, vector(packetBytes)"
vector 188  CAIN.eNodeB1.x2ppp[0].queue  queueingTime:vector  ETV
attr interpolationmode  none
attr title  "queueing time, vector"
vector 137  CAIN.eNodeB.x2ppp[0].ppp  rcvdPkFromHL:vector(packetBytes)  ETV
attr interpolationmode  none
attr source  packetReceivedFromUpper
attr title  "packets received from higher layer, vector(packetBytes)"
vector 133  CAIN.eNodeB.x2ppp[0].ppp  txPk:vector(packetBytes)  ETV
attr interpolationmode  none
attr source  packetSentToLower
attr title  "packets transmitted, vector(packetBytes)"
vector 195  CAIN.eNodeB1.x2ppp[0].ppp  rcvdPkFromHL:vector(packetBytes)  ETV
attr interpolationmode  none
attr source  packetReceivedFromUpper
attr title  "packets received from higher layer, vector(packetBytes)"
vector 191  CAIN.eNodeB1.x2ppp[0].ppp  txPk:vector(packetBytes)  ETV
attr interpolationmode  none
attr source  packetSentToLower
attr title  "packets transmitted, vector(packetBytes)"
vector 192  CAIN.eNodeB1.x2ppp[0].ppp  rxPkOk:vector(packetBytes)  ETV
attr interpolationmode  none
attr source  rxPkOk
attr title  "packets received OK, vector(packetBytes)"
vector 196  CAIN.eNodeB1.x2ppp[0].ppp  passedUpPk:vector(packetBytes)  ETV
attr interpolationmode  none
attr source  packetSentToUpper
attr title  "packets passed to higher layer, vector(packetBytes)"
vector 134  CAIN.eNodeB.x2ppp[0].ppp  rxPkOk:vector(packetBytes)  ETV
attr interpolationmode  none
attr source  rxPkOk
attr title  "packets received OK, vector(packetBytes)"
vector 138  CAIN.eNodeB.x2ppp[0].ppp  passedUpPk:vector(packetBytes)  ETV
attr interpolationmode  none
attr source  packetSentToUpper
attr title  "packets passed to higher layer, vector(packetBytes)"
vector 1005  CAIN.eNodeB1.sctp  "Throughput of Association 4"  ETV
vector 882  CAIN.eNodeB1.sctp  "Peer Rwnd 4"  ETV
vector 1025  CAIN.eNodeB1.sctp  "Fast Recovery State 5:10.0.4.1"  ETV
vector 1052  CAIN.eNodeB1.sctp  "Fast Recovery State 5:10.0.2.2"  ETV
vector 1079  CAIN.eNodeB1.sctp  "Fast Recovery State 5:10.0.5.1"  ETV
vector 1108  CAIN.eNodeB.sctp  "Throughput of Association 3"  ETV
vector 860  CAIN.eNodeB.sctp  "Peer Rwnd 3"  ETV
vector 1128  CAIN.eNodeB.sctp  "Fast Recovery State 6:10.0.4.2"  ETV
vector 1155  CAIN.eNodeB.sctp  "Fast Recovery State 6:10.0.3.2"  ETV
vector 1182  CAIN.eNodeB.sctp  "Fast Recovery State 6:10.0.5.2"  ETV
vector 904  CAIN.eNodeB.sctp  "Peer Rwnd 1"  ETV
vector 1209  CAIN.eNodeB.sctp  "Fast Recovery State 1:10.0.4.2"  ETV
vector 1236  CAIN.eNodeB.sctp  "Fast Recovery State 1:10.0.3.2"  ETV
vector 953  CAIN.eNodeB1.sctp  "Peer Rwnd 2"  ETV
vector 1263  CAIN.eNodeB1.sctp  "Fast Recovery State 2:10.0.4.1"  ETV
vector 1290  CAIN.eNodeB1.sctp  "Fast Recovery State 2:10.0.2.2"  ETV
vector 1035  CAIN.eNodeB1.sctp  "Slow Start Threshold 5:10.0.2.2"  ETV
vector 1036  CAIN.eNodeB1.sctp  "Congestion Window 5:10.0.2.2"  ETV
vector 1037  CAIN.eNodeB1.sctp  "Bandwidth 5:10.0.2.2"  ETV
vector 1040  CAIN.eNodeB1.sctp  "HB Sent 5:10.0.2.2"  ETV
vector 1033  CAIN.eNodeB1.sctp  "RTO 5:10.0.2.2"  ETV
vector 1008  CAIN.eNodeB1.sctp  "Slow Start Threshold 5:10.0.4.1"  ETV
vector 1009  CAIN.eNodeB1.sctp  "Congestion Window 5:10.0.4.1"  ETV
vector 1010  CAIN.eNodeB1.sctp  "Bandwidth 5:10.0.4.1"  ETV
vector 1013  CAIN.eNodeB1.sctp  "HB Sent 5:10.0.4.1"  ETV
vector 1006  CAIN.eNodeB1.sctp  "RTO 5:10.0.4.1"  ETV
vector 1062  CAIN.eNodeB1.sctp  "Slow Start Threshold 5:10.0.5.1"  ETV
vector 1063  CAIN.eNodeB1.sctp  "Congestion Window 5:10.0.5.1"  ETV
vector 1064  CAIN.eNodeB1.sctp  "Bandwidth 5:10.0.5.1"  ETV
vector 1060  CAIN.eNodeB1.sctp  "RTO 5:10.0.5.1"  ETV
vector 1138  CAIN.eNodeB.sctp  "Slow Start Threshold 6:10.0.3.2"  ETV
vector 1139  CAIN.eNodeB.sctp  "Congestion Window 6:10.0.3.2"  ETV
vector 1140  CAIN.eNodeB.sctp  "Bandwidth 6:10.0.3.2"  ETV
vector 1143  CAIN.eNodeB.sctp  "HB Sent 6:10.0.3.2"  ETV
vector 1136  CAIN.eNodeB.sctp  "RTO 6:10.0.3.2"  ETV
vector 1111  CAIN.eNodeB.sctp  "Slow Start Threshold 6:10.0.4.2"  ETV
vector 1112  CAIN.eNodeB.sctp  "Congestion Window 6:10.0.4.2"  ETV
vector 1113  CAIN.eNodeB.sctp  "Bandwidth 6:10.0.4.2"  ETV
vector 1116  CAIN.eNodeB.sctp  "HB Sent 6:10.0.4.2"  ETV
vector 1109  CAIN.eNodeB.sctp  "RTO 6:10.0.4.2"  ETV
vector 1165  CAIN.eNodeB.sctp  "Slow Start Threshold 6:10.0.5.2"  ETV
vector 1166  CAIN.eNodeB.sctp  "Congestion Window 6:10.0.5.2"  ETV
vector 1167  CAIN.eNodeB.sctp  "Bandwidth 6:10.0.5.2"  ETV
vector 1163  CAIN.eNodeB.sctp  "RTO 6:10.0.5.2"  ETV
vector 916  CAIN.eNodeB.sctp  "HB ACK Sent 1:10.0.5.2"  ETV
vector 917  CAIN.eNodeB.sctp  "HB Received 1:10.0.5.2"  ETV
vector 965  CAIN.eNodeB1.sctp  "HB ACK Sent 2:10.0.5.1"  ETV
vector 966  CAIN.eNodeB1.sctp  "HB Received 2:10.0.5.1"  ETV
vector 1219  CAIN.eNodeB.sctp  "Slow Start Threshold 1:10.0.3.2"  ETV
vector 1220  CAIN.eNodeB.sctp  "Congestion Window 1:10.0.3.2"  ETV
vector 1221  CAIN.eNodeB.sctp  "Bandwidth 1:10.0.3.2"  ETV
vector 1224  CAIN.eNodeB.sctp  "HB Sent 1:10.0.3.2"  ETV
vector 1217  CAIN.eNodeB.sctp  "RTO 1:10.0.3.2"  ETV
vector 1192  CAIN.eNodeB.sctp  "Slow Start Threshold 1:10.0.4.2"  ETV
vector 1193  CAIN.eNodeB.sctp  "Congestion Window 1:10.0.4.2"  ETV
vector 1194  CAIN.eNodeB.sctp  "Bandwidth 1:10.0.4.2"  ETV
vector 1197  CAIN.eNodeB.sctp  "HB Sent 1:10.0.4.2"  ETV
vector 1190  CAIN.eNodeB.sctp  "RTO 1:10.0.4.2"  ETV
vector 910  CAIN.eNodeB.sctp  "Slow Start Threshold 1:10.0.5.2"  ETV
vector 911  CAIN.eNodeB.sctp  "Congestion Window 1:10.0.5.2"  ETV
vector 912  CAIN.eNodeB.sctp  "Bandwidth 1:10.0.5.2"  ETV
vector 908  CAIN.eNodeB.sctp  "RTO 1:10.0.5.2"  ETV
vector 1273  CAIN.eNodeB1.sctp  "Slow Start Threshold 2:10.0.2.2"  ETV
vector 1274  CAIN.eNodeB1.sctp  "Congestion Window 2:10.0.2.2"  ETV
vector 1275  CAIN.eNodeB1.sctp  "Bandwidth 2:10.0.2.2"  ETV
vector 1278  CAIN.eNodeB1.sctp  "HB Sent 2:10.0.2.2"  ETV
vector 1271  CAIN.eNodeB1.sctp  "RTO 2:10.0.2.2"  ETV
vector 1246  CAIN.eNodeB1.sctp  "Slow Start Threshold 2:10.0.4.1"  ETV
vector 1247  CAIN.eNodeB1.sctp  "Congestion Window 2:10.0.4.1"  ETV
vector 1248  CAIN.eNodeB1.sctp  "Bandwidth 2:10.0.4.1"  ETV
vector 1251  CAIN.eNodeB1.sctp  "HB Sent 2:10.0.4.1"  ETV
vector 1244  CAIN.eNodeB1.sctp  "RTO 2:10.0.4.1"  ETV
vector 959  CAIN.eNodeB1.sctp  "Slow Start Threshold 2:10.0.5.1"  ETV
vector 960  CAIN.eNodeB1.sctp  "Congestion Window 2:10.0.5.1"  ETV
vector 961  CAIN.eNodeB1.sctp  "Bandwidth 2:10.0.5.1"  ETV
vector 957  CAIN.eNodeB1.sctp  "RTO 2:10.0.5.1"  ETV
vector 1173  CAIN.eNodeB.sctp  "HB ACK Received 6:10.0.5.2"  ETV
vector 1164  CAIN.eNodeB.sctp  "RTT 6:10.0.5.2"  ETV
vector 1070  CAIN.eNodeB1.sctp  "HB ACK Received 5:10.0.5.1"  ETV
vector 1061  CAIN.eNodeB1.sctp  "RTT 5:10.0.5.1"  ETV
vector 1171  CAIN.eNodeB.sctp  "HB ACK Sent 6:10.0.5.2"  ETV
vector 1172  CAIN.eNodeB.sctp  "HB Received 6:10.0.5.2"  ETV
vector 1068  CAIN.eNodeB1.sctp  "HB ACK Sent 5:10.0.5.1"  ETV
vector 1069  CAIN.eNodeB1.sctp  "HB Received 5:10.0.5.1"  ETV
vector 967  CAIN.eNodeB1.sctp  "HB ACK Received 2:10.0.5.1"  ETV
vector 958  CAIN.eNodeB1.sctp  "RTT 2:10.0.5.1"  ETV
vector 918  CAIN.eNodeB.sctp  "HB ACK Received 1:10.0.5.2"  ETV
vector 909  CAIN.eNodeB.sctp  "RTT 1:10.0.5.2"  ETV
vector 96  CAIN.eNodeB.nic.mac  receivedPacketFromLowerLayer:vector(packetBytes)  ETV
attr interpolationmode  none
attr source  receivedPacketFromLowerLayer
vector 1305  CAIN.eNodeB.sctp  "SendQueue of Association 6"  ETV
vector 1168  CAIN.eNodeB.sctp  "TSN Sent 6:10.0.5.2"  ETV
vector 1175  CAIN.eNodeB.sctp  "Outstanding Bytes 6:10.0.5.2"  ETV
vector 848  CAIN.eNodeB.sctp  "Outstanding Bytes 3:Total"  ETV
vector 1174  CAIN.eNodeB.sctp  "Queued Sent Bytes 6:10.0.5.2"  ETV
vector 847  CAIN.eNodeB.sctp  "Queued Sent Bytes 3:Total"  ETV
vector 963  CAIN.eNodeB1.sctp  "TSN Received 2:10.0.5.1"  ETV
vector 939  CAIN.eNodeB1.sctp  "Queued Received Bytes 2:Total"  ETV
vector 935  CAIN.eNodeB1.sctp  "Advertised Receiver Window 2"  ETV
vector 944  CAIN.eNodeB1.sctp  "Number of Total Gap Blocks Stored 2"  ETV
vector 945  CAIN.eNodeB1.sctp  "Number of Revokable Gap Blocks Stored 2"  ETV
vector 946  CAIN.eNodeB1.sctp  "Number of Non-Revokable Gap Blocks Stored 2"  ETV
vector 947  CAIN.eNodeB1.sctp  "Number of Duplicate TSNs Stored 2"  ETV
vector 951  CAIN.eNodeB1.sctp  "Length of SACK Sent 2"  ETV
vector 948  CAIN.eNodeB1.sctp  "Number of Revokable Gap Blocks Sent 2"  ETV
vector 949  CAIN.eNodeB1.sctp  "Number of Non-Revokable Gap Blocks Sent 2"  ETV
vector 950  CAIN.eNodeB1.sctp  "Number of Duplicate TSNs Sent 2"  ETV
vector 955  CAIN.eNodeB1.sctp  "End to End Delay of Association 2"  ETV
vector 199  CAIN.eNodeB1.x2App[0].client  rcvdPk:vector(packetBytes)  ETV
attr interpolationmode  none
attr source  rcvdPk
attr title  "packets received, vector(packetBytes)"
vector 1304  CAIN.eNodeB.sctp  "Number of Gap Blocks in Last SACK of Association 6"  ETV
vector 849  CAIN.eNodeB.sctp  "Number of Revokable Gap Blocks in SACK 3"  ETV
vector 850  CAIN.eNodeB.sctp  "Number of Non-Revokable Gap Blocks in SACK 3"  ETV
vector 1185  CAIN.eNodeB.sctp  "TSN Acked CumAck 6:10.0.5.2"  ETV
vector 1151  CAIN.eNodeB.sctp  "Number of Gap Acked Chunks in Last SACK 6:10.0.3.2"  ETV
vector 1152  CAIN.eNodeB.sctp  "Number of Non-Revokable Gap Acked Chunks in Last SACK 6:10.0.3.2"  ETV
vector 1153  CAIN.eNodeB.sctp  "Number of Gap Missed Chunks in Last SACK 6:10.0.3.2"  ETV
vector 1124  CAIN.eNodeB.sctp  "Number of Gap Acked Chunks in Last SACK 6:10.0.4.2"  ETV
vector 1125  CAIN.eNodeB.sctp  "Number of Non-Revokable Gap Acked Chunks in Last SACK 6:10.0.4.2"  ETV
vector 1126  CAIN.eNodeB.sctp  "Number of Gap Missed Chunks in Last SACK 6:10.0.4.2"  ETV
vector 1178  CAIN.eNodeB.sctp  "Number of Gap Acked Chunks in Last SACK 6:10.0.5.2"  ETV
vector 1179  CAIN.eNodeB.sctp  "Number of Non-Revokable Gap Acked Chunks in Last SACK 6:10.0.5.2"  ETV
vector 1180  CAIN.eNodeB.sctp  "Number of Gap Missed Chunks in Last SACK 6:10.0.5.2"  ETV
vector 859  CAIN.eNodeB.sctp  "Arwnd in Last SACK 3"  ETV
vector 1187  CAIN.eNodeB.sctp  "TSN PseudoCumAck 6:10.0.5.2"  ETV
vector 1188  CAIN.eNodeB.sctp  "TSN RTXPseudoCumAck 6:10.0.5.2"  ETV
vector 1181  CAIN.eNodeB.sctp  "Partial Bytes Acked 6:10.0.5.2"  ETV
vector 1333  CAIN.ueD2DTx[17].tcp  tcpRcvQueueBytes  ETV
vector 1320  CAIN.ueD2DTx[17].tcp  "advertised window"  ETV
vector 1319  CAIN.ueD2DTx[17].tcp  "receive window"  ETV
vector 1322  CAIN.ueD2DTx[17].tcp  "sent ack"  ETV
vector 749  CAIN.ueD2DTx[17].nic.pdcpRrc  receivedPacketFromUpperLayer:vector(packetBytes)  ETV
attr interpolationmode  none
attr source  receivedPacketFromUpperLayer
vector 752  CAIN.ueD2DTx[17].nic.pdcpRrc  sentPacketToLowerLayer:vector(packetBytes)  ETV
attr interpolationmode  none
attr source  sentPacketToLowerLayer
vector 753  CAIN.ueD2DTx[17].nic.mac  receivedPacketFromUpperLayer:vector(packetBytes)  ETV
attr interpolationmode  none
attr source  receivedPacketFromUpperLayer
vector 763  CAIN.ueD2DTx[17].nic.mac  CainHopMessageSent:vector  ETV
attr interpolationmode  none
attr title  "# of Sent CAIN hop message, vector"
vector 756  CAIN.ueD2DTx[17].nic.mac  sentPacketToLowerLayer:vector(packetBytes)  ETV
attr interpolationmode  none
attr source  sentPacketToLowerLayer
vector 434  CAIN.ueD2DTx[7].nic.mac  receivedPacketFromLowerLayer:vector(packetBytes)  ETV
attr interpolationmode  none
attr source  receivedPacketFromLowerLayer
vector 436  CAIN.ueD2DTx[7].nic.mac  sentPacketToLowerLayer:vector(packetBytes)  ETV
attr interpolationmode  none
attr source  sentPacketToLowerLayer
vector 498  CAIN.ueD2DTx[9].nic.mac  receivedPacketFromLowerLayer:vector(packetBytes)  ETV
attr interpolationmode  none
attr source  receivedPacketFromLowerLayer
vector 500  CAIN.ueD2DTx[9].nic.mac  sentPacketToLowerLayer:vector(packetBytes)  ETV
attr interpolationmode  none
attr source  sentPacketToLowerLayer
vector 111  CAIN.eNodeB.nic.mac  racpkt:vector  ETV
attr interpolationmode  none
attr title  "eNB received racpkt message, vector"
vector 112  CAIN.eNodeB.nic.mac  racDistanceSignal:vector  ETV
attr interpolationmode  none
attr title  "Rac distance to enb, vector"
vector 113  CAIN.eNodeB.nic.mac  racServedDevsSignal:vector  ETV
attr interpolationmode  none
attr title  "# of devices served on rac arriavall, vector"
vector 106  CAIN.eNodeB.nic.mac  DistanceSignal:vector  ETV
attr interpolationmode  none
attr title  "Distance to enb, vector"
vector 101  CAIN.eNodeB.nic.mac  CainHopMessage:vector  ETV
attr interpolationmode  none
attr title  "eNB received CAIN hop message, vector"
vector 98  CAIN.eNodeB.nic.mac  sentPacketToLowerLayer:vector(packetBytes)  ETV
attr interpolationmode  none
attr source  sentPacketToLowerLayer
vector 505  CAIN.ueD2DTx[9].nic.mac  DropedHopMessage:vector  ETV
attr interpolationmode  none
attr title  "Droped Hop CAIN message due to RB not available, vector"
vector 1357  CAIN.ueD2DTx[8].tcp  tcpRcvQueueBytes  ETV
vector 1344  CAIN.ueD2DTx[8].tcp  "advertised window"  ETV
vector 1343  CAIN.ueD2DTx[8].tcp  "receive window"  ETV
vector 1346  CAIN.ueD2DTx[8].tcp  "sent ack"  ETV
vector 461  CAIN.ueD2DTx[8].nic.pdcpRrc  receivedPacketFromUpperLayer:vector(packetBytes)  ETV
attr interpolationmode  none
attr source  receivedPacketFromUpperLayer
vector 464  CAIN.ueD2DTx[8].nic.pdcpRrc  sentPacketToLowerLayer:vector(packetBytes)  ETV
attr interpolationmode  none
attr source  sentPacketToLowerLayer
vector 465  CAIN.ueD2DTx[8].nic.mac  receivedPacketFromUpperLayer:vector(packetBytes)  ETV
attr interpolationmode  none
attr source  receivedPacketFromUpperLayer
vector 468  CAIN.ueD2DTx[8].nic.mac  sentPacketToLowerLayer:vector(packetBytes)  ETV
attr interpolationmode  none
attr source  sentPacketToLowerLayer
vector 466  CAIN.ueD2DTx[8].nic.mac  receivedPacketFromLowerLayer:vector(packetBytes)  ETV
attr interpolationmode  none
attr source  receivedPacketFromLowerLayer
vector 1381  CAIN.ueD2DTx[9].tcp  tcpRcvQueueBytes  ETV
vector 1368  CAIN.ueD2DTx[9].tcp  "advertised window"  ETV
vector 1367  CAIN.ueD2DTx[9].tcp  "receive window"  ETV
vector 1370  CAIN.ueD2DTx[9].tcp  "sent ack"  ETV
vector 493  CAIN.ueD2DTx[9].nic.pdcpRrc  receivedPacketFromUpperLayer:vector(packetBytes)  ETV
attr interpolationmode  none
attr source  receivedPacketFromUpperLayer
vector 496  CAIN.ueD2DTx[9].nic.pdcpRrc  sentPacketToLowerLayer:vector(packetBytes)  ETV
attr interpolationmode  none
attr source  sentPacketToLowerLayer
vector 497  CAIN.ueD2DTx[9].nic.mac  receivedPacketFromUpperLayer:vector(packetBytes)  ETV
attr interpolationmode  none
attr source  receivedPacketFromUpperLayer
vector 467  CAIN.ueD2DTx[8].nic.mac  sentPacketToUpperLayer:vector(packetBytes)  ETV
attr interpolationmode  none
attr source  sentPacketToUpperLayer
vector 115  CAIN.eNodeB.nic.phy  averageCqiUlvect:vector  ETV
attr source  averageCqiUlvect
attr title  "Average Cqi reported in UL, vector"
attr unit  cqi
vector 499  CAIN.ueD2DTx[9].nic.mac  sentPacketToUpperLayer:vector(packetBytes)  ETV
attr interpolationmode  none
attr source  sentPacketToUpperLayer
vector 99  CAIN.eNodeB.nic.mac  measuredItbs:vector  ETV
attr source  measuredItbs
attr title  "TBS index, vector"
attr unit  ""
vector 109  CAIN.eNodeB.nic.mac  ServedHopDevs:vector  ETV
attr interpolationmode  none
attr title  "# of devices served on hop forwarding, vector"
vector 1405  CAIN.ueD2DTx[7].tcp  tcpRcvQueueBytes  ETV
vector 1392  CAIN.ueD2DTx[7].tcp  "advertised window"  ETV
vector 1391  CAIN.ueD2DTx[7].tcp  "receive window"  ETV
vector 1394  CAIN.ueD2DTx[7].tcp  "sent ack"  ETV
vector 429  CAIN.ueD2DTx[7].nic.pdcpRrc  receivedPacketFromUpperLayer:vector(packetBytes)  ETV
attr interpolationmode  none
attr source  receivedPacketFromUpperLayer
vector 432  CAIN.ueD2DTx[7].nic.pdcpRrc  sentPacketToLowerLayer:vector(packetBytes)  ETV
attr interpolationmode  none
attr source  sentPacketToLowerLayer
vector 433  CAIN.ueD2DTx[7].nic.mac  receivedPacketFromUpperLayer:vector(packetBytes)  ETV
attr interpolationmode  none
attr source  receivedPacketFromUpperLayer
vector 442  CAIN.ueD2DTx[7].nic.mac  CainMessageSent:vector  ETV
attr interpolationmode  none
attr title  "# of Sent CAIN message, vector"
vector 562  CAIN.ueD2DTx[11].nic.mac  receivedPacketFromLowerLayer:vector(packetBytes)  ETV
attr interpolationmode  none
attr source  receivedPacketFromLowerLayer
vector 564  CAIN.ueD2DTx[11].nic.mac  sentPacketToLowerLayer:vector(packetBytes)  ETV
attr interpolationmode  none
attr source  sentPacketToLowerLayer
vector 1429  CAIN.ueD2DTx[5].tcp  tcpRcvQueueBytes  ETV
vector 1416  CAIN.ueD2DTx[5].tcp  "advertised window"  ETV
vector 1415  CAIN.ueD2DTx[5].tcp  "receive window"  ETV
vector 1418  CAIN.ueD2DTx[5].tcp  "sent ack"  ETV
vector 365  CAIN.ueD2DTx[5].nic.pdcpRrc  receivedPacketFromUpperLayer:vector(packetBytes)  ETV
attr interpolationmode  none
attr source  receivedPacketFromUpperLayer
vector 368  CAIN.ueD2DTx[5].nic.pdcpRrc  sentPacketToLowerLayer:vector(packetBytes)  ETV
attr interpolationmode  none
attr source  sentPacketToLowerLayer
vector 369  CAIN.ueD2DTx[5].nic.mac  receivedPacketFromUpperLayer:vector(packetBytes)  ETV
attr interpolationmode  none
attr source  receivedPacketFromUpperLayer
vector 97  CAIN.eNodeB.nic.mac  sentPacketToUpperLayer:vector(packetBytes)  ETV
attr interpolationmode  none
attr source  sentPacketToUpperLayer
vector 379  CAIN.ueD2DTx[5].nic.mac  CainHopMessageSent:vector  ETV
attr interpolationmode  none
attr title  "# of Sent CAIN hop message, vector"
vector 372  CAIN.ueD2DTx[5].nic.mac  sentPacketToLowerLayer:vector(packetBytes)  ETV
attr interpolationmode  none
attr source  sentPacketToLowerLayer
vector 100  CAIN.eNodeB.nic.mac  CainMessage:vector  ETV
attr interpolationmode  none
attr title  "eNB received CAIN message, vector"
vector 1453  CAIN.ueD2DTx[10].tcp  tcpRcvQueueBytes  ETV
vector 1440  CAIN.ueD2DTx[10].tcp  "advertised window"  ETV
vector 1439  CAIN.ueD2DTx[10].tcp  "receive window"  ETV
vector 1442  CAIN.ueD2DTx[10].tcp  "sent ack"  ETV
vector 525  CAIN.ueD2DTx[10].nic.pdcpRrc  receivedPacketFromUpperLayer:vector(packetBytes)  ETV
attr interpolationmode  none
attr source  receivedPacketFromUpperLayer
vector 528  CAIN.ueD2DTx[10].nic.pdcpRrc  sentPacketToLowerLayer:vector(packetBytes)  ETV
attr interpolationmode  none
attr source  sentPacketToLowerLayer
vector 529  CAIN.ueD2DTx[10].nic.mac  receivedPacketFromUpperLayer:vector(packetBytes)  ETV
attr interpolationmode  none
attr source  receivedPacketFromUpperLayer
vector 1477  CAIN.ueD2DTx[13].tcp  tcpRcvQueueBytes  ETV
vector 1464  CAIN.ueD2DTx[13].tcp  "advertised window"  ETV
vector 1463  CAIN.ueD2DTx[13].tcp  "receive window"  ETV
vector 1466  CAIN.ueD2DTx[13].tcp  "sent ack"  ETV
vector 621  CAIN.ueD2DTx[13].nic.pdcpRrc  receivedPacketFromUpperLayer:vector(packetBytes)  ETV
attr interpolationmode  none
attr source  receivedPacketFromUpperLayer
vector 624  CAIN.ueD2DTx[13].nic.pdcpRrc  sentPacketToLowerLayer:vector(packetBytes)  ETV
attr interpolationmode  none
attr source  sentPacketToLowerLayer
vector 625  CAIN.ueD2DTx[13].nic.mac  receivedPacketFromUpperLayer:vector(packetBytes)  ETV
attr interpolationmode  none
attr source  receivedPacketFromUpperLayer
vector 538  CAIN.ueD2DTx[10].nic.mac  CainMessageSent:vector  ETV
attr interpolationmode  none
attr title  "# of Sent CAIN message, vector"
vector 532  CAIN.ueD2DTx[10].nic.mac  sentPacketToLowerLayer:vector(packetBytes)  ETV
attr interpolationmode  none
attr source  sentPacketToLowerLayer
vector 635  CAIN.ueD2DTx[13].nic.mac  CainHopMessageSent:vector  ETV
attr interpolationmode  none
attr title  "# of Sent CAIN hop message, vector"
vector 628  CAIN.ueD2DTx[13].nic.mac  sentPacketToLowerLayer:vector(packetBytes)  ETV
attr interpolationmode  none
attr source  sentPacketToLowerLayer
vector 530  CAIN.ueD2DTx[10].nic.mac  receivedPacketFromLowerLayer:vector(packetBytes)  ETV
attr interpolationmode  none
attr source  receivedPacketFromLowerLayer
vector 568  CAIN.ueD2DTx[11].nic.mac  DropedCainMessage:vector  ETV
attr interpolationmode  none
attr title  "Droped CAIN message due to RB not available, vector"
vector 1501  CAIN.ueD2DTx[0].tcp  tcpRcvQueueBytes  ETV
vector 1488  CAIN.ueD2DTx[0].tcp  "advertised window"  ETV
vector 1487  CAIN.ueD2DTx[0].tcp  "receive window"  ETV
vector 1490  CAIN.ueD2DTx[0].tcp  "sent ack"  ETV
vector 205  CAIN.ueD2DTx[0].nic.pdcpRrc  receivedPacketFromUpperLayer:vector(packetBytes)  ETV
attr interpolationmode  none
attr source  receivedPacketFromUpperLayer
vector 208  CAIN.ueD2DTx[0].nic.pdcpRrc  sentPacketToLowerLayer:vector(packetBytes)  ETV
attr interpolationmode  none
attr source  sentPacketToLowerLayer
vector 209  CAIN.ueD2DTx[0].nic.mac  receivedPacketFromUpperLayer:vector(packetBytes)  ETV
attr interpolationmode  none
attr source  receivedPacketFromUpperLayer
vector 219  CAIN.ueD2DTx[0].nic.mac  CainHopMessageSent:vector  ETV
attr interpolationmode  none
attr title  "# of Sent CAIN hop message, vector"
vector 212  CAIN.ueD2DTx[0].nic.mac  sentPacketToLowerLayer:vector(packetBytes)  ETV
attr interpolationmode  none
attr source  sentPacketToLowerLayer
vector 786  CAIN.ueD2DTx[18].nic.mac  receivedPacketFromLowerLayer:vector(packetBytes)  ETV
attr interpolationmode  none
attr source  receivedPacketFromLowerLayer
vector 788  CAIN.ueD2DTx[18].nic.mac  sentPacketToLowerLayer:vector(packetBytes)  ETV
attr interpolationmode  none
attr source  sentPacketToLowerLayer
vector 92  CAIN.eNodeB.nic.pdcpRrc  receivedPacketFromLowerLayer:vector(packetBytes)  ETV
attr interpolationmode  none
attr source  receivedPacketFromLowerLayer
vector 93  CAIN.eNodeB.nic.pdcpRrc  sentPacketToUpperLayer:vector(packetBytes)  ETV
attr interpolationmode  none
attr source  sentPacketToUpperLayer
vector 86  CAIN.eNodeB.udp  sentPk:vector(packetBytes)  ETV
attr interpolationmode  none
attr source  sentPk
attr title  "packets sent, vector(packetBytes)"
vector 145  CAIN.eNodeB1.udp  rcvdPk:vector(packetBytes)  ETV
attr interpolationmode  none
attr source  rcvdPk
attr title  "packets received, vector(packetBytes)"
vector 146  CAIN.eNodeB1.udp  passedUpPk:vector(count)  ETV
attr interpolationmode  none
attr title  "packets passed up, vector(count)"
vector 792  CAIN.ueD2DTx[18].nic.mac  DropedCainMessage:vector  ETV
attr interpolationmode  none
attr title  "Droped CAIN message due to RB not available, vector"
vector 793  CAIN.ueD2DTx[18].nic.mac  DropedHopMessage:vector  ETV
attr interpolationmode  none
attr title  "Droped Hop CAIN message due to RB not available, vector"
vector 569  CAIN.ueD2DTx[11].nic.mac  DropedHopMessage:vector  ETV
attr interpolationmode  none
attr title  "Droped Hop CAIN message due to RB not available, vector"
vector 1525  CAIN.ueD2DTx[16].tcp  tcpRcvQueueBytes  ETV
vector 1512  CAIN.ueD2DTx[16].tcp  "advertised window"  ETV
vector 1511  CAIN.ueD2DTx[16].tcp  "receive window"  ETV
vector 1514  CAIN.ueD2DTx[16].tcp  "sent ack"  ETV
vector 717  CAIN.ueD2DTx[16].nic.pdcpRrc  receivedPacketFromUpperLayer:vector(packetBytes)  ETV
attr interpolationmode  none
attr source  receivedPacketFromUpperLayer
vector 720  CAIN.ueD2DTx[16].nic.pdcpRrc  sentPacketToLowerLayer:vector(packetBytes)  ETV
attr interpolationmode  none
attr source  sentPacketToLowerLayer
vector 721  CAIN.ueD2DTx[16].nic.mac  receivedPacketFromUpperLayer:vector(packetBytes)  ETV
attr interpolationmode  none
attr source  receivedPacketFromUpperLayer
vector 730  CAIN.ueD2DTx[16].nic.mac  CainMessageSent:vector  ETV
attr interpolationmode  none
attr title  "# of Sent CAIN message, vector"
vector 724  CAIN.ueD2DTx[16].nic.mac  sentPacketToLowerLayer:vector(packetBytes)  ETV
attr interpolationmode  none
attr source  sentPacketToLowerLayer
vector 149  CAIN.eNodeB1.nic.pdcpRrc  receivedPacketFromUpperLayer:vector(packetBytes)  ETV
attr interpolationmode  none
attr source  receivedPacketFromUpperLayer
vector 152  CAIN.eNodeB1.nic.pdcpRrc  sentPacketToLowerLayer:vector(packetBytes)  ETV
attr interpolationmode  none
attr source  sentPacketToLowerLayer
vector 1301  CAIN.eNodeB1.sctp  "SendQueue of Association 5"  ETV
vector 1065  CAIN.eNodeB1.sctp  "TSN Sent 5:10.0.5.1"  ETV
vector 1072  CAIN.eNodeB1.sctp  "Outstanding Bytes 5:10.0.5.1"  ETV
vector 870  CAIN.eNodeB1.sctp  "Outstanding Bytes 4:Total"  ETV
vector 1071  CAIN.eNodeB1.sctp  "Queued Sent Bytes 5:10.0.5.1"  ETV
vector 869  CAIN.eNodeB1.sctp  "Queued Sent Bytes 4:Total"  ETV
vector 153  CAIN.eNodeB1.nic.mac  receivedPacketFromUpperLayer:vector(packetBytes)  ETV
attr interpolationmode  none
attr source  receivedPacketFromUpperLayer
vector 914  CAIN.eNodeB.sctp  "TSN Received 1:10.0.5.2"  ETV
vector 890  CAIN.eNodeB.sctp  "Queued Received Bytes 1:Total"  ETV
vector 886  CAIN.eNodeB.sctp  "Advertised Receiver Window 1"  ETV
vector 895  CAIN.eNodeB.sctp  "Number of Total Gap Blocks Stored 1"  ETV
vector 896  CAIN.eNodeB.sctp  "Number of Revokable Gap Blocks Stored 1"  ETV
vector 897  CAIN.eNodeB.sctp  "Number of Non-Revokable Gap Blocks Stored 1"  ETV
vector 898  CAIN.eNodeB.sctp  "Number of Duplicate TSNs Stored 1"  ETV
vector 902  CAIN.eNodeB.sctp  "Length of SACK Sent 1"  ETV
vector 899  CAIN.eNodeB.sctp  "Number of Revokable Gap Blocks Sent 1"  ETV
vector 900  CAIN.eNodeB.sctp  "Number of Non-Revokable Gap Blocks Sent 1"  ETV
vector 901  CAIN.eNodeB.sctp  "Number of Duplicate TSNs Sent 1"  ETV
vector 906  CAIN.eNodeB.sctp  "End to End Delay of Association 1"  ETV
vector 141  CAIN.eNodeB.x2App[0].client  rcvdPk:vector(packetBytes)  ETV
attr interpolationmode  none
attr source  rcvdPk
attr title  "packets received, vector(packetBytes)"
vector 1300  CAIN.eNodeB1.sctp  "Number of Gap Blocks in Last SACK of Association 5"  ETV
vector 871  CAIN.eNodeB1.sctp  "Number of Revokable Gap Blocks in SACK 4"  ETV
vector 872  CAIN.eNodeB1.sctp  "Number of Non-Revokable Gap Blocks in SACK 4"  ETV
vector 1082  CAIN.eNodeB1.sctp  "TSN Acked CumAck 5:10.0.5.1"  ETV
vector 1048  CAIN.eNodeB1.sctp  "Number of Gap Acked Chunks in Last SACK 5:10.0.2.2"  ETV
vector 1049  CAIN.eNodeB1.sctp  "Number of Non-Revokable Gap Acked Chunks in Last SACK 5:10.0.2.2"  ETV
vector 1050  CAIN.eNodeB1.sctp  "Number of Gap Missed Chunks in Last SACK 5:10.0.2.2"  ETV
vector 1021  CAIN.eNodeB1.sctp  "Number of Gap Acked Chunks in Last SACK 5:10.0.4.1"  ETV
vector 1022  CAIN.eNodeB1.sctp  "Number of Non-Revokable Gap Acked Chunks in Last SACK 5:10.0.4.1"  ETV
vector 1023  CAIN.eNodeB1.sctp  "Number of Gap Missed Chunks in Last SACK 5:10.0.4.1"  ETV
vector 1075  CAIN.eNodeB1.sctp  "Number of Gap Acked Chunks in Last SACK 5:10.0.5.1"  ETV
vector 1076  CAIN.eNodeB1.sctp  "Number of Non-Revokable Gap Acked Chunks in Last SACK 5:10.0.5.1"  ETV
vector 1077  CAIN.eNodeB1.sctp  "Number of Gap Missed Chunks in Last SACK 5:10.0.5.1"  ETV
vector 881  CAIN.eNodeB1.sctp  "Arwnd in Last SACK 4"  ETV
vector 1084  CAIN.eNodeB1.sctp  "TSN PseudoCumAck 5:10.0.5.1"  ETV
vector 1085  CAIN.eNodeB1.sctp  "TSN RTXPseudoCumAck 5:10.0.5.1"  ETV
vector 1078  CAIN.eNodeB1.sctp  "Partial Bytes Acked 5:10.0.5.1"  ETV
vector 1549  CAIN.ueD2DTx[18].tcp  tcpRcvQueueBytes  ETV
vector 1536  CAIN.ueD2DTx[18].tcp  "advertised window"  ETV
vector 1535  CAIN.ueD2DTx[18].tcp  "receive window"  ETV
vector 1538  CAIN.ueD2DTx[18].tcp  "sent ack"  ETV
vector 781  CAIN.ueD2DTx[18].nic.pdcpRrc  receivedPacketFromUpperLayer:vector(packetBytes)  ETV
attr interpolationmode  none
attr source  receivedPacketFromUpperLayer
vector 784  CAIN.ueD2DTx[18].nic.pdcpRrc  sentPacketToLowerLayer:vector(packetBytes)  ETV
attr interpolationmode  none
attr source  sentPacketToLowerLayer
vector 785  CAIN.ueD2DTx[18].nic.mac  receivedPacketFromUpperLayer:vector(packetBytes)  ETV
attr interpolationmode  none
attr source  receivedPacketFromUpperLayer
vector 1573  CAIN.ueD2DTx[14].tcp  tcpRcvQueueBytes  ETV
vector 1560  CAIN.ueD2DTx[14].tcp  "advertised window"  ETV
vector 1559  CAIN.ueD2DTx[14].tcp  "receive window"  ETV
vector 1562  CAIN.ueD2DTx[14].tcp  "sent ack"  ETV
vector 653  CAIN.ueD2DTx[14].nic.pdcpRrc  receivedPacketFromUpperLayer:vector(packetBytes)  ETV
attr interpolationmode  none
attr source  receivedPacketFromUpperLayer
vector 656  CAIN.ueD2DTx[14].nic.pdcpRrc  sentPacketToLowerLayer:vector(packetBytes)  ETV
attr interpolationmode  none
attr source  sentPacketToLowerLayer
vector 657  CAIN.ueD2DTx[14].nic.mac  receivedPacketFromUpperLayer:vector(packetBytes)  ETV
attr interpolationmode  none
attr source  receivedPacketFromUpperLayer
vector 667  CAIN.ueD2DTx[14].nic.mac  CainHopMessageSent:vector  ETV
attr interpolationmode  none
attr title  "# of Sent CAIN hop message, vector"
vector 660  CAIN.ueD2DTx[14].nic.mac  sentPacketToLowerLayer:vector(packetBytes)  ETV
attr interpolationmode  none
attr source  sentPacketToLowerLayer
vector 154  CAIN.eNodeB1.nic.mac  receivedPacketFromLowerLayer:vector(packetBytes)  ETV
attr interpolationmode  none
attr source  receivedPacketFromLowerLayer
vector 1597  CAIN.ueD2DTx[11].tcp  tcpRcvQueueBytes  ETV
vector 1584  CAIN.ueD2DTx[11].tcp  "advertised window"  ETV
vector 1583  CAIN.ueD2DTx[11].tcp  "receive window"  ETV
vector 1586  CAIN.ueD2DTx[11].tcp  "sent ack"  ETV
vector 557  CAIN.ueD2DTx[11].nic.pdcpRrc  receivedPacketFromUpperLayer:vector(packetBytes)  ETV
attr interpolationmode  none
attr source  receivedPacketFromUpperLayer
vector 560  CAIN.ueD2DTx[11].nic.pdcpRrc  sentPacketToLowerLayer:vector(packetBytes)  ETV
attr interpolationmode  none
attr source  sentPacketToLowerLayer
vector 561  CAIN.ueD2DTx[11].nic.mac  receivedPacketFromUpperLayer:vector(packetBytes)  ETV
attr interpolationmode  none
attr source  receivedPacketFromUpperLayer
vector 787  CAIN.ueD2DTx[18].nic.mac  sentPacketToUpperLayer:vector(packetBytes)  ETV
attr interpolationmode  none
attr source  sentPacketToUpperLayer
vector 108  CAIN.eNodeB.nic.mac  ServedDevs:vector  ETV
attr interpolationmode  none
attr title  "# of devices served on cain forwarding, vector"
vector 731  CAIN.ueD2DTx[16].nic.mac  CainHopMessageSent:vector  ETV
attr interpolationmode  none
attr title  "# of Sent CAIN hop message, vector"
vector 117  CAIN.eNodeB.pppIf.queue  rcvdPk:vector(packetBytes)  ETV
attr interpolationmode  none
attr title  "received packets, vector(packetBytes)"
vector 119  CAIN.eNodeB.pppIf.queue  queueingTime:vector  ETV
attr interpolationmode  none
attr title  "queueing time, vector"
vector 126  CAIN.eNodeB.pppIf.ppp  rcvdPkFromHL:vector(packetBytes)  ETV
attr interpolationmode  none
attr source  packetReceivedFromUpper
attr title  "packets received from higher layer, vector(packetBytes)"
vector 122  CAIN.eNodeB.pppIf.ppp  txPk:vector(packetBytes)  ETV
attr interpolationmode  none
attr source  packetSentToLower
attr title  "packets transmitted, vector(packetBytes)"
vector 59  CAIN.pgw.ppp[0].ppp  rxPkOk:vector(packetBytes)  ETV
attr interpolationmode  none
attr source  rxPkOk
attr title  "packets received OK, vector(packetBytes)"
vector 63  CAIN.pgw.ppp[0].ppp  passedUpPk:vector(packetBytes)  ETV
attr interpolationmode  none
attr source  packetSentToUpper
attr title  "packets passed to higher layer, vector(packetBytes)"
vector 44  CAIN.pgw.udp  rcvdPk:vector(packetBytes)  ETV
attr interpolationmode  none
attr source  rcvdPk
attr title  "packets received, vector(packetBytes)"
vector 45  CAIN.pgw.udp  passedUpPk:vector(count)  ETV
attr interpolationmode  none
attr title  "packets passed up, vector(count)"
vector 43  CAIN.pgw.udp  sentPk:vector(packetBytes)  ETV
attr interpolationmode  none
attr source  sentPk
attr title  "packets sent, vector(packetBytes)"
vector 64  CAIN.pgw.ppp[1].queue  rcvdPk:vector(packetBytes)  ETV
attr interpolationmode  none
attr title  "received packets, vector(packetBytes)"
vector 66  CAIN.pgw.ppp[1].queue  queueingTime:vector  ETV
attr interpolationmode  none
attr title  "queueing time, vector"
vector 73  CAIN.pgw.ppp[1].ppp  rcvdPkFromHL:vector(packetBytes)  ETV
attr interpolationmode  none
attr source  packetReceivedFromUpper
attr title  "packets received from higher layer, vector(packetBytes)"
vector 69  CAIN.pgw.ppp[1].ppp  txPk:vector(packetBytes)  ETV
attr interpolationmode  none
attr source  packetSentToLower
attr title  "packets transmitted, vector(packetBytes)"
vector 181  CAIN.eNodeB1.pppIf.ppp  rxPkOk:vector(packetBytes)  ETV
attr interpolationmode  none
attr source  rxPkOk
attr title  "packets received OK, vector(packetBytes)"
vector 185  CAIN.eNodeB1.pppIf.ppp  passedUpPk:vector(packetBytes)  ETV
attr interpolationmode  none
attr source  packetSentToUpper
attr title  "packets passed to higher layer, vector(packetBytes)"
vector 1621  CAIN.ueD2DTx[4].tcp  tcpRcvQueueBytes  ETV
vector 1608  CAIN.ueD2DTx[4].tcp  "advertised window"  ETV
vector 1607  CAIN.ueD2DTx[4].tcp  "receive window"  ETV
vector 1610  CAIN.ueD2DTx[4].tcp  "sent ack"  ETV
vector 333  CAIN.ueD2DTx[4].nic.pdcpRrc  receivedPacketFromUpperLayer:vector(packetBytes)  ETV
attr interpolationmode  none
attr source  receivedPacketFromUpperLayer
vector 336  CAIN.ueD2DTx[4].nic.pdcpRrc  sentPacketToLowerLayer:vector(packetBytes)  ETV
attr interpolationmode  none
attr source  sentPacketToLowerLayer
vector 337  CAIN.ueD2DTx[4].nic.mac  receivedPacketFromUpperLayer:vector(packetBytes)  ETV
attr interpolationmode  none
attr source  receivedPacketFromUpperLayer
vector 347  CAIN.ueD2DTx[4].nic.mac  CainHopMessageSent:vector  ETV
attr interpolationmode  none
attr title  "# of Sent CAIN hop message, vector"
vector 340  CAIN.ueD2DTx[4].nic.mac  sentPacketToLowerLayer:vector(packetBytes)  ETV
attr interpolationmode  none
attr source  sentPacketToLowerLayer
vector 658  CAIN.ueD2DTx[14].nic.mac  receivedPacketFromLowerLayer:vector(packetBytes)  ETV
attr interpolationmode  none
attr source  receivedPacketFromLowerLayer
vector 1645  CAIN.ueD2DTx[12].tcp  tcpRcvQueueBytes  ETV
vector 1632  CAIN.ueD2DTx[12].tcp  "advertised window"  ETV
vector 1631  CAIN.ueD2DTx[12].tcp  "receive window"  ETV
vector 1634  CAIN.ueD2DTx[12].tcp  "sent ack"  ETV
vector 589  CAIN.ueD2DTx[12].nic.pdcpRrc  receivedPacketFromUpperLayer:vector(packetBytes)  ETV
attr interpolationmode  none
attr source  receivedPacketFromUpperLayer
vector 592  CAIN.ueD2DTx[12].nic.pdcpRrc  sentPacketToLowerLayer:vector(packetBytes)  ETV
attr interpolationmode  none
attr source  sentPacketToLowerLayer
vector 593  CAIN.ueD2DTx[12].nic.mac  receivedPacketFromUpperLayer:vector(packetBytes)  ETV
attr interpolationmode  none
attr source  receivedPacketFromUpperLayer
vector 596  CAIN.ueD2DTx[12].nic.mac  sentPacketToLowerLayer:vector(packetBytes)  ETV
attr interpolationmode  none
attr source  sentPacketToLowerLayer
vector 1669  CAIN.ueD2DTx[6].tcp  tcpRcvQueueBytes  ETV
vector 1656  CAIN.ueD2DTx[6].tcp  "advertised window"  ETV
vector 1655  CAIN.ueD2DTx[6].tcp  "receive window"  ETV
vector 1658  CAIN.ueD2DTx[6].tcp  "sent ack"  ETV
vector 397  CAIN.ueD2DTx[6].nic.pdcpRrc  receivedPacketFromUpperLayer:vector(packetBytes)  ETV
attr interpolationmode  none
attr source  receivedPacketFromUpperLayer
vector 400  CAIN.ueD2DTx[6].nic.pdcpRrc  sentPacketToLowerLayer:vector(packetBytes)  ETV
attr interpolationmode  none
attr source  sentPacketToLowerLayer
vector 401  CAIN.ueD2DTx[6].nic.mac  receivedPacketFromUpperLayer:vector(packetBytes)  ETV
attr interpolationmode  none
attr source  receivedPacketFromUpperLayer
vector 404  CAIN.ueD2DTx[6].nic.mac  sentPacketToLowerLayer:vector(packetBytes)  ETV
attr interpolationmode  none
attr source  sentPacketToLowerLayer
vector 169  CAIN.eNodeB1.nic.mac  racpkt:vector  ETV
attr interpolationmode  none
attr title  "eNB received racpkt message, vector"
vector 170  CAIN.eNodeB1.nic.mac  racDistanceSignal:vector  ETV
attr interpolationmode  none
attr title  "Rac distance to enb, vector"
vector 171  CAIN.eNodeB1.nic.mac  racServedDevsSignal:vector  ETV
attr interpolationmode  none
attr title  "# of devices served on rac arriavall, vector"
vector 156  CAIN.eNodeB1.nic.mac  sentPacketToLowerLayer:vector(packetBytes)  ETV
attr interpolationmode  none
attr source  sentPacketToLowerLayer
vector 594  CAIN.ueD2DTx[12].nic.mac  receivedPacketFromLowerLayer:vector(packetBytes)  ETV
attr interpolationmode  none
attr source  receivedPacketFromLowerLayer
vector 402  CAIN.ueD2DTx[6].nic.mac  receivedPacketFromLowerLayer:vector(packetBytes)  ETV
attr interpolationmode  none
attr source  receivedPacketFromLowerLayer
vector 1693  CAIN.ueD2DTx[1].tcp  tcpRcvQueueBytes  ETV
vector 1680  CAIN.ueD2DTx[1].tcp  "advertised window"  ETV
vector 1679  CAIN.ueD2DTx[1].tcp  "receive window"  ETV
vector 1682  CAIN.ueD2DTx[1].tcp  "sent ack"  ETV
vector 237  CAIN.ueD2DTx[1].nic.pdcpRrc  receivedPacketFromUpperLayer:vector(packetBytes)  ETV
attr interpolationmode  none
attr source  receivedPacketFromUpperLayer
vector 240  CAIN.ueD2DTx[1].nic.pdcpRrc  sentPacketToLowerLayer:vector(packetBytes)  ETV
attr interpolationmode  none
attr source  sentPacketToLowerLayer
vector 241  CAIN.ueD2DTx[1].nic.mac  receivedPacketFromUpperLayer:vector(packetBytes)  ETV
attr interpolationmode  none
attr source  receivedPacketFromUpperLayer
vector 251  CAIN.ueD2DTx[1].nic.mac  CainHopMessageSent:vector  ETV
attr interpolationmode  none
attr title  "# of Sent CAIN hop message, vector"
vector 244  CAIN.ueD2DTx[1].nic.mac  sentPacketToLowerLayer:vector(packetBytes)  ETV
attr interpolationmode  none
attr source  sentPacketToLowerLayer
vector 274  CAIN.ueD2DTx[2].nic.mac  receivedPacketFromLowerLayer:vector(packetBytes)  ETV
attr interpolationmode  none
attr source  receivedPacketFromLowerLayer
vector 276  CAIN.ueD2DTx[2].nic.mac  sentPacketToLowerLayer:vector(packetBytes)  ETV
attr interpolationmode  none
attr source  sentPacketToLowerLayer
vector 1717  CAIN.ueD2DTx[15].tcp  tcpRcvQueueBytes  ETV
vector 1704  CAIN.ueD2DTx[15].tcp  "advertised window"  ETV
vector 1703  CAIN.ueD2DTx[15].tcp  "receive window"  ETV
vector 1706  CAIN.ueD2DTx[15].tcp  "sent ack"  ETV
vector 685  CAIN.ueD2DTx[15].nic.pdcpRrc  receivedPacketFromUpperLayer:vector(packetBytes)  ETV
attr interpolationmode  none
attr source  receivedPacketFromUpperLayer
vector 688  CAIN.ueD2DTx[15].nic.pdcpRrc  sentPacketToLowerLayer:vector(packetBytes)  ETV
attr interpolationmode  none
attr source  sentPacketToLowerLayer
vector 689  CAIN.ueD2DTx[15].nic.mac  receivedPacketFromUpperLayer:vector(packetBytes)  ETV
attr interpolationmode  none
attr source  receivedPacketFromUpperLayer
vector 692  CAIN.ueD2DTx[15].nic.mac  sentPacketToLowerLayer:vector(packetBytes)  ETV
attr interpolationmode  none
attr source  sentPacketToLowerLayer
vector 690  CAIN.ueD2DTx[15].nic.mac  receivedPacketFromLowerLayer:vector(packetBytes)  ETV
attr interpolationmode  none
attr source  receivedPacketFromLowerLayer
vector 697  CAIN.ueD2DTx[15].nic.mac  DropedHopMessage:vector  ETV
attr interpolationmode  none
attr title  "Droped Hop CAIN message due to RB not available, vector"
vector 1741  CAIN.ueD2DTx[2].tcp  tcpRcvQueueBytes  ETV
vector 1728  CAIN.ueD2DTx[2].tcp  "advertised window"  ETV
vector 1727  CAIN.ueD2DTx[2].tcp  "receive window"  ETV
vector 1730  CAIN.ueD2DTx[2].tcp  "sent ack"  ETV
vector 269  CAIN.ueD2DTx[2].nic.pdcpRrc  receivedPacketFromUpperLayer:vector(packetBytes)  ETV
attr interpolationmode  none
attr source  receivedPacketFromUpperLayer
vector 272  CAIN.ueD2DTx[2].nic.pdcpRrc  sentPacketToLowerLayer:vector(packetBytes)  ETV
attr interpolationmode  none
attr source  sentPacketToLowerLayer
vector 273  CAIN.ueD2DTx[2].nic.mac  receivedPacketFromUpperLayer:vector(packetBytes)  ETV
attr interpolationmode  none
attr source  receivedPacketFromUpperLayer
vector 1765  CAIN.ueD2DTx[19].tcp  tcpRcvQueueBytes  ETV
vector 1752  CAIN.ueD2DTx[19].tcp  "advertised window"  ETV
vector 1751  CAIN.ueD2DTx[19].tcp  "receive window"  ETV
vector 1754  CAIN.ueD2DTx[19].tcp  "sent ack"  ETV
vector 813  CAIN.ueD2DTx[19].nic.pdcpRrc  receivedPacketFromUpperLayer:vector(packetBytes)  ETV
attr interpolationmode  none
attr source  receivedPacketFromUpperLayer
vector 816  CAIN.ueD2DTx[19].nic.pdcpRrc  sentPacketToLowerLayer:vector(packetBytes)  ETV
attr interpolationmode  none
attr source  sentPacketToLowerLayer
vector 817  CAIN.ueD2DTx[19].nic.mac  receivedPacketFromUpperLayer:vector(packetBytes)  ETV
attr interpolationmode  none
attr source  receivedPacketFromUpperLayer
vector 282  CAIN.ueD2DTx[2].nic.mac  CainMessageSent:vector  ETV
attr interpolationmode  none
attr title  "# of Sent CAIN message, vector"
vector 691  CAIN.ueD2DTx[15].nic.mac  sentPacketToUpperLayer:vector(packetBytes)  ETV
attr interpolationmode  none
attr source  sentPacketToUpperLayer
vector 820  CAIN.ueD2DTx[19].nic.mac  sentPacketToLowerLayer:vector(packetBytes)  ETV
attr interpolationmode  none
attr source  sentPacketToLowerLayer
vector 818  CAIN.ueD2DTx[19].nic.mac  receivedPacketFromLowerLayer:vector(packetBytes)  ETV
attr interpolationmode  none
attr source  receivedPacketFromLowerLayer
vector 819  CAIN.ueD2DTx[19].nic.mac  sentPacketToUpperLayer:vector(packetBytes)  ETV
attr interpolationmode  none
attr source  sentPacketToUpperLayer
vector 1789  CAIN.ueD2DTx[3].tcp  tcpRcvQueueBytes  ETV
vector 1776  CAIN.ueD2DTx[3].tcp  "advertised window"  ETV
vector 1775  CAIN.ueD2DTx[3].tcp  "receive window"  ETV
vector 1778  CAIN.ueD2DTx[3].tcp  "sent ack"  ETV
vector 301  CAIN.ueD2DTx[3].nic.pdcpRrc  receivedPacketFromUpperLayer:vector(packetBytes)  ETV
attr interpolationmode  none
attr source  receivedPacketFromUpperLayer
vector 304  CAIN.ueD2DTx[3].nic.pdcpRrc  sentPacketToLowerLayer:vector(packetBytes)  ETV
attr interpolationmode  none
attr source  sentPacketToLowerLayer
vector 305  CAIN.ueD2DTx[3].nic.mac  receivedPacketFromUpperLayer:vector(packetBytes)  ETV
attr interpolationmode  none
attr source  receivedPacketFromUpperLayer
vector 157  CAIN.eNodeB1.nic.mac  measuredItbs:vector  ETV
attr source  measuredItbs
attr title  "TBS index, vector"
attr unit  ""
vector 155  CAIN.eNodeB1.nic.mac  sentPacketToUpperLayer:vector(packetBytes)  ETV
attr interpolationmode  none
attr source  sentPacketToUpperLayer
vector 228  CAIN.ueD2DTx[0].nic.phy  averageCqiDlvect:vector  ETV
attr source  averageCqiDlvect
attr title  "Average Cqi reported in DL, vector"
attr unit  cqi
vector 210  CAIN.ueD2DTx[0].nic.mac  receivedPacketFromLowerLayer:vector(packetBytes)  ETV
attr interpolationmode  none
attr source  receivedPacketFromLowerLayer
vector 211  CAIN.ueD2DTx[0].nic.mac  sentPacketToUpperLayer:vector(packetBytes)  ETV
attr interpolationmode  none
attr source  sentPacketToUpperLayer
vector 206  CAIN.ueD2DTx[0].nic.pdcpRrc  receivedPacketFromLowerLayer:vector(packetBytes)  ETV
attr interpolationmode  none
attr source  receivedPacketFromLowerLayer
vector 207  CAIN.ueD2DTx[0].nic.pdcpRrc  sentPacketToUpperLayer:vector(packetBytes)  ETV
attr interpolationmode  none
attr source  sentPacketToUpperLayer
1108	150	0.0000001228	0
1219	235	0.0000006304	65535
1220	235	0.0000006304	8940
1221	235	0.0000006304	0.3725
1217	235	0.0000006304	3
1224	235	0.0000006304	1
1236	163	0.0000003096	0
1192	235	0.0000006304	65535
1193	235	0.0000006304	8940
1194	235	0.0000006304	0.3725
1190	235	0.0000006304	3
1197	235	0.0000006304	1
1209	163	0.0000003096	0
910	235	0.0000006304	65535
911	235	0.0000006304	8940
912	235	0.0000006304	0.3725
908	235	0.0000006304	3
908	302	0.0000008564	1
909	302	0.0000008564	2.26e-07
914	3537	0.0570000972	2000
914	3556	0.0570004484	2001
914	3556	0.0570004484	2002
914	3556	0.0570004484	2003
914	3556	0.0570004484	2004
914	3556	0.0570004484	2005
914	3556	0.0570004484	2006
914	3556	0.0570004484	2007
914	3556	0.0570004484	2008
914	3556	0.0570004484	2009
914	3556	0.0570004484	2010
914	3556	0.0570004484	2011
914	14579	0.2570021596	2012
914	14579	0.2570021596	2013
914	14579	0.2570021596	2014
914	14579	0.2570021596	2015
914	14579	0.2570021596	2016
914	14579	0.2570021596	2017
914	14579	0.2570021596	2018
914	14579	0.2570021596	2019
914	14579	0.2570021596	2020
914	14579	0.2570021596	2021
914	14579	0.2570021596	2022
914	14579	0.2570021596	2023
914	14579	0.2570021596	2024
914	14579	0.2570021596	2025
914	14579	0.2570021596	2026
914	14579	0.2570021596	2027
914	14579	0.2570021596	2028
914	14579	0.2570021596	2029
914	14579	0.2570021596	2030
914	14579	0.2570021596	2031
914	14579	0.2570021596	2032
914	14579	0.2570021596	2033
914	14579	0.2570021596	2034
914	14579	0.2570021596	2035
914	14579	0.2570021596	2036
914	14579	0.2570021596	2037
914	14579	0.2570021596	2038
914	14579	0.2570021596	2039
914	14579	0.2570021596	2040
914	14579	0.2570021596	2041
914	14579	0.2570021596	2042
914	14579	0.2570021596	2043
914	14579	0.2570021596	2044
914	14579	0.2570021596	2045
914	14579	0.2570021596	2046
914	14579	0.2570021596	2047
914	14579	0.2570021596	2048
914	14579	0.2570021596	2049
914	14579	0.2570021596	2050
914	14579	0.2570021596	2051
914	14579	0.2570021596	2052
914	14579	0.2570021596	2053
914	14579	0.2570021596	2054
914	14579	0.2570021596	2055
914	14579	0.2570021596	2056
914	14579	0.2570021596	2057
914	14579	0.2570021596	2058
914	14579	0.2570021596	2059
914	14579	0.2570021596	2060
914	14579	0.2570021596	2061
914	14579	0.2570021596	2062
914	14579	0.2570021596	2063
914	14579	0.2570021596	2064
914	14579	0.2570021596	2065
914	14579	0.2570021596	2066
914	14579	0.2570021596	2067
914	14579	0.2570021596	2068
914	14579	0.2570021596	2069
914	14579	0.2570021596	2070
914	14579	0.2570021596	2071
914	14579	0.2570021596	2072
914	14579	0.2570021596	2073
914	14579	0.2570021596	2074
914	14579	0.2570021596	2075
914	14579	0.2570021596	2076
914	14579	0.2570021596	2077
914	14579	0.2570021596	2078
914	14579	0.2570021596	2079
914	14579	0.2570021596	2080
914	14579	0.2570021596	2081
914	14579	0.2570021596	2082
914	14579	0.2570021596	2083
914	14579	0.2570021596	2084
914	14579	0.2570021596	2085
914	14579	0.2570021596	2086
914	14579	0.2570021596	2087
914	14579	0.2570021596	2088
914	14579	0.2570021596	2089
914	14579	0.2570021596	2090
914	14579	0.2570021596	2091
914	14579	0.2570021596	2092
914	14579	0.2570021596	2093
914	14579	0.2570021596	2094
914	14579	0.2570021596	2095
914	14579	0.2570021596	2096
914	14579	0.2570021596	2097
914	14579	0.2570021596	2098
914	14579	0.2570021596	2099
914	14579	0.2570021596	2100
914	14579	0.2570021596	2101
914	14579	0.2570021596	2102
914	14579	0.2570021596	2103
914	14579	0.2570021596	2104
914	14579	0.2570021596	2105
914	14579	0.2570021596	2106
914	14579	0.2570021596	2107
917	207	0.000000552	1
917	221	0.000000596	2
916	207	0.000000552	1
916	221	0.000000596	2
918	302	0.0000008564	1
918	308	0.0000009004	2
927	131	0	0
886	3537	0.0570000972	65533
886	14565	0.2570004484	65535
886	25004	0.4570021596	65535
890	3537	0.0570000972	2
890	3540	0.0570000972	2
890	3568	0.0570004484	22
890	3569	0.0570004484	0
890	3570	0.0570004484	0
890	3571	0.0570004484	0
890	3572	0.0570004484	0
890	3573	0.0570004484	0
890	3574	0.0570004484	0
890	3575	0.0570004484	0
890	3576	0.0570004484	0
890	3577	0.0570004484	0
890	3578	0.0570004484	0
890	14565	0.2570004484	0
890	14676	0.2570021596	192
890	14677	0.2570021596	0
890	14678	0.2570021596	0
890	14679	0.2570021596	0
890	14680	0.2570021596	0
890	14681	0.2570021596	0
890	14682	0.2570021596	0
890	14683	0.2570021596	0
890	14684	0.2570021596	0
890	14685	0.2570021596	0
890	14686	0.2570021596	0
890	14687	0.2570021596	0
890	14688	0.2570021596	0
890	14689	0.2570021596	0
890	14690	0.2570021596	0
890	14691	0.2570021596	0
890	14692	0.2570021596	0
890	14693	0.2570021596	0
890	14694	0.2570021596	0
890	14695	0.2570021596	0
890	14696	0.2570021596	0
890	14697	0.2570021596	0
890	14698	0.2570021596	0
890	14699	0.2570021596	0
890	14700	0.2570021596	0
890	14701	0.2570021596	0
890	14702	0.2570021596	0
890	14703	0.2570021596	0
890	14704	0.2570021596	0
890	14705	0.2570021596	0
890	14706	0.2570021596	0
890	14707	0.2570021596	0
890	14708	0.2570021596	0
890	14709	0.2570021596	0
890	14710	0.2570021596	0
890	14711	0.2570021596	0
890	14712	0.2570021596	0
890	14713	0.2570021596	0
890	14714	0.2570021596	0
890	14715	0.2570021596	0
890	14716	0.2570021596	0
890	14717	0.2570021596	0
890	14718	0.2570021596	0
890	14719	0.2570021596	0
890	14720	0.2570021596	0
890	14721	0.2570021596	0
890	14722	0.2570021596	0
890	14723	0.2570021596	0
890	14724	0.2570021596	0
890	14725	0.2570021596	0
890	14726	0.2570021596	0
890	14727	0.2570021596	0
890	14728	0.2570021596	0
890	14729	0.2570021596	0
890	14730	0.2570021596	0
890	14731	0.2570021596	0
890	14732	0.2570021596	0
890	14733	0.2570021596	0
890	14734	0.2570021596	0
890	14735	0.2570021596	0
890	14736	0.2570021596	0
890	14737	0.2570021596	0
890	14738	0.2570021596	0
890	14739	0.2570021596	0
890	14740	0.2570021596	0
890	14741	0.2570021596	0
890	14742	0.2570021596	0
890	14743	0.2570021596	0
890	14744	0.2570021596	0
890	14745	0.2570021596	0
890	14746	0.2570021596	0
890	14747	0.2570021596	0
890	14748	0.2570021596	0
890	14749	0.2570021596	0
890	14750	0.2570021596	0
890	14751	0.2570021596	0
890	14752	0.2570021596	0
890	14753	0.2570021596	0
890	14754	0.2570021596	0
890	14755	0.2570021596	0
890	14756	0.2570021596	0
890	14757	0.2570021596	0
890	14758	0.2570021596	0
890	14759	0.2570021596	0
890	14760	0.2570021596	0
890	14761	0.2570021596	0
890	14762	0.2570021596	0
890	14763	0.2570021596	0
890	14764	0.2570021596	0
890	14765	0.2570021596	0
890	14766	0.2570021596	0
890	14767	0.2570021596	0
890	14768	0.2570021596	0
890	14769	0.2570021596	0
890	14770	0.2570021596	0
890	14771	0.2570021596	0
890	25004	0.4570021596	0
895	3537	0.0570000972	0
895	14565	0.2570004484	0
895	25004	0.4570021596	0
896	3537	0.0570000972	0
896	14565	0.2570004484	0
896	25004	0.4570021596	0
897	3537	0.0570000972	0
897	14565	0.2570004484	0
897	25004	0.4570021596	0
898	3537	0.0570000972	0
898	14565	0.2570004484	0
898	25004	0.4570021596	0
899	3537	0.0570000972	0
899	14565	0.2570004484	0
899	25004	0.4570021596	0
900	3537	0.0570000972	0
900	14565	0.2570004484	0
900	25004	0.4570021596	0
901	3537	0.0570000972	0
901	14565	0.2570004484	0
901	25004	0.4570021596	0
902	3537	0.0570000972	16
902	14565	0.2570004484	16
902	25004	0.4570021596	16
904	163	0.0000003096	65535
906	3540	0.0570000972	9.72e-08
906	3568	0.0570004484	2.572e-07
906	3568	0.0570004484	2.572e-07
906	3568	0.0570004484	2.572e-07
906	3568	0.0570004484	2.572e-07
906	3568	0.0570004484	2.572e-07
906	3568	0.0570004484	2.572e-07
906	3568	0.0570004484	2.572e-07
906	3568	0.0570004484	2.572e-07
906	3568	0.0570004484	2.572e-07
906	3568	0.0570004484	2.572e-07
906	3568	0.0570004484	2.572e-07
906	14676	0.2570021596	1.6172e-06
906	14676	0.2570021596	1.6172e-06
906	14676	0.2570021596	1.6172e-06
906	14676	0.2570021596	1.6172e-06
906	14676	0.2570021596	1.6172e-06
906	14676	0.2570021596	1.6172e-06
906	14676	0.2570021596	1.6172e-06
906	14676	0.2570021596	1.6172e-06
906	14676	0.2570021596	1.6172e-06
906	14676	0.2570021596	1.6172e-06
906	14676	0.2570021596	1.6172e-06
906	14676	0.2570021596	1.6172e-06
906	14676	0.2570021596	1.6172e-06
906	14676	0.2570021596	1.6172e-06
906	14676	0.2570021596	1.6172e-06
906	14676	0.2570021596	1.6172e-06
906	14676	0.2570021596	1.6172e-06
906	14676	0.2570021596	1.6172e-06
906	14676	0.2570021596	1.6172e-06
906	14676	0.2570021596	1.6172e-06
906	14676	0.2570021596	1.6172e-06
906	14676	0.2570021596	1.6172e-06
906	14676	0.2570021596	1.6172e-06
906	14676	0.2570021596	1.6172e-06
906	14676	0.2570021596	1.6172e-06
906	14676	0.2570021596	1.6172e-06
906	14676	0.2570021596	1.6172e-06
906	14676	0.2570021596	1.6172e-06
906	14676	0.2570021596	1.6172e-06
906	14676	0.2570021596	1.6172e-06
906	14676	0.2570021596	1.6172e-06
906	14676	0.2570021596	1.6172e-06
906	14676	0.2570021596	1.6172e-06
906	14676	0.2570021596	1.6172e-06
906	14676	0.2570021596	1.6172e-06
906	14676	0.2570021596	1.6172e-06
906	14676	0.2570021596	1.6172e-06
906	14676	0.2570021596	1.6172e-06
906	14676	0.2570021596	1.6172e-06
906	14676	0.2570021596	1.6172e-06
906	14676	0.2570021596	1.6172e-06
906	14676	0.2570021596	1.6172e-06
906	14676	0.2570021596	1.6172e-06
906	14676	0.2570021596	1.6172e-06
906	14676	0.2570021596	1.6172e-06
906	14676	0.2570021596	1.6172e-06
906	14676	0.2570021596	1.6172e-06
906	14676	0.2570021596	1.6172e-06
906	14676	0.2570021596	1.6172e-06
906	14676	0.2570021596	1.6172e-06
906	14676	0.2570021596	1.6172e-06
906	14676	0.2570021596	1.6172e-06
906	14676	0.2570021596	1.6172e-06
906	14676	0.2570021596	1.6172e-06
906	14676	0.2570021596	1.6172e-06
906	14676	0.2570021596	1.6172e-06
906	14676	0.2570021596	1.6172e-06
906	14676	0.2570021596	1.6172e-06
906	14676	0.2570021596	1.6172e-06
906	14676	0.2570021596	1.6172e-06
906	14676	0.2570021596	1.6172e-06
906	14676	0.2570021596	1.6172e-06
906	14676	0.2570021596	1.6172e-06
906	14676	0.2570021596	1.6172e-06
906	14676	0.2570021596	1.6172e-06
906	14676	0.2570021596	1.6172e-06
906	14676	0.2570021596	1.6172e-06
906	14676	0.2570021596	1.6172e-06
906	14676	0.2570021596	1.6172e-06
906	14676	0.2570021596	1.6172e-06
906	14676	0.2570021596	1.6172e-06
906	14676	0.2570021596	1.6172e-06
906	14676	0.2570021596	1.6172e-06
906	14676	0.2570021596	1.6172e-06
906	14676	0.2570021596	1.6172e-06
906	14676	0.2570021596	1.6172e-06
906	14676	0.2570021596	1.6172e-06
906	14676	0.2570021596	1.6172e-06
906	14676	0.2570021596	1.6172e-06
906	14676	0.2570021596	1.6172e-06
906	14676	0.2570021596	1.6172e-06
906	14676	0.2570021596	1.6172e-06
906	14676	0.2570021596	1.6172e-06
906	14676	0.2570021596	1.6172e-06
906	14676	0.2570021596	1.6172e-06
906	14676	0.2570021596	1.6172e-06
906	14676	0.2570021596	1.6172e-06
906	14676	0.2570021596	1.6172e-06
906	14676	0.2570021596	1.6172e-06
906	14676	0.2570021596	1.6172e-06
906	14676	0.2570021596	1.6172e-06
906	14676	0.2570021596	1.6172e-06
906	14676	0.2570021596	1.6172e-06
906	14676	0.2570021596	1.6172e-06
906	14676	0.2570021596	1.6172e-06
906	14676	0.2570021596	1.6172e-06
907	131	0	0
1138	178	0.000000458	65535
1139	178	0.000000458	8940
1140	178	0.000000458	0.3725
1136	178	0.000000458	3
1143	178	0.000000458	1
1151	665	0.0070001912	0
1151	11633	0.2070005424	0
1151	22519	0.4070022536	0
1152	665	0.0070001912	0
1152	11633	0.2070005424	0
1152	22519	0.4070022536	0
1153	665	0.0070001912	0
1153	11633	0.2070005424	0
1153	22519	0.4070022536	0
1155	150	0.0000001228	0
1111	178	0.000000458	65535
1112	178	0.000000458	8940
1113	178	0.000000458	0.3725
1109	178	0.000000458	3
1116	178	0.000000458	1
1124	665	0.0070001912	0
1124	11633	0.2070005424	0
1124	22519	0.4070022536	0
1125	665	0.0070001912	0
1125	11633	0.2070005424	0
1125	22519	0.4070022536	0
1126	665	0.0070001912	0
1126	11633	0.2070005424	0
1126	22519	0.4070022536	0
1128	150	0.0000001228	0
1165	178	0.000000458	65535
1165	62240	1.2070005424	65535
1166	178	0.000000458	8940
1166	62240	1.2070005424	8940
1167	178	0.000000458	0.3725
1167	62240	1.2070005424	23.84
1163	178	0.000000458	3
1163	255	0.0000006744	1
1163	665	0.0070001912	1
1163	11633	0.2070005424	1
1163	22519	0.4070022536	1
1164	255	0.0000006744	2.164e-07
1164	665	0.0070001912	1.912e-07
1164	11633	0.2070005424	0.2000003512
1164	22519	0.4070022536	0.2000017112
1168	609	0.007	2000
1168	665	0.0070001912	2001
1168	665	0.0070001912	2002
1168	665	0.0070001912	2003
1168	665	0.0070001912	2004
1168	665	0.0070001912	2005
1168	665	0.0070001912	2006
1168	665	0.0070001912	2007
1168	665	0.0070001912	2008
1168	665	0.0070001912	2009
1168	665	0.0070001912	2010
1168	665	0.0070001912	2011
1168	11633	0.2070005424	2012
1168	11633	0.2070005424	2013
1168	11633	0.2070005424	2014
1168	11633	0.2070005424	2015
1168	11633	0.2070005424	2016
1168	11633	0.2070005424	2017
1168	11633	0.2070005424	2018
1168	11633	0.2070005424	2019
1168	11633	0.2070005424	2020
1168	11633	0.2070005424	2021
1168	11633	0.2070005424	2022
1168	11633	0.2070005424	2023
1168	11633	0.2070005424	2024
1168	11633	0.2070005424	2025
1168	11633	0.2070005424	2026
1168	11633	0.2070005424	2027
1168	11633	0.2070005424	2028
1168	11633	0.2070005424	2029
1168	11633	0.2070005424	2030
1168	11633	0.2070005424	2031
1168	11633	0.2070005424	2032
1168	11633	0.2070005424	2033
1168	11633	0.2070005424	2034
1168	11633	0.2070005424	2035
1168	11633	0.2070005424	2036
1168	11633	0.2070005424	2037
1168	11633	0.2070005424	2038
1168	11633	0.2070005424	2039
1168	11633	0.2070005424	2040
1168	11633	0.2070005424	2041
1168	11633	0.2070005424	2042
1168	11633	0.2070005424	2043
1168	11633	0.2070005424	2044
1168	11633	0.2070005424	2045
1168	11633	0.2070005424	2046
1168	11633	0.2070005424	2047
1168	11633	0.2070005424	2048
1168	11633	0.2070005424	2049
1168	11633	0.2070005424	2050
1168	11633	0.2070005424	2051
1168	11633	0.2070005424	2052
1168	11633	0.2070005424	2053
1168	11633	0.2070005424	2054
1168	11633	0.2070005424	2055
1168	11633	0.2070005424	2056
1168	11633	0.2070005424	2057
1168	11633	0.2070005424	2058
1168	11633	0.2070005424	2059
1168	11633	0.2070005424	2060
1168	11633	0.2070005424	2061
1168	11633	0.2070005424	2062
1168	11633	0.2070005424	2063
1168	11633	0.2070005424	2064
1168	11633	0.2070005424	2065
1168	11633	0.2070005424	2066
1168	11633	0.2070005424	2067
1168	11633	0.2070005424	2068
1168	11633	0.2070005424	2069
1168	11633	0.2070005424	2070
1168	11633	0.2070005424	2071
1168	11633	0.2070005424	2072
1168	11633	0.2070005424	2073
1168	11633	0.2070005424	2074
1168	11633	0.2070005424	2075
1168	11633	0.2070005424	2076
1168	11633	0.2070005424	2077
1168	11633	0.2070005424	2078
1168	11633	0.2070005424	2079
1168	11633	0.2070005424	2080
1168	11633	0.2070005424	2081
1168	11633	0.2070005424	2082
1168	11633	0.2070005424	2083
1168	11633	0.2070005424	2084
1168	11633	0.2070005424	2085
1168	11633	0.2070005424	2086
1168	11633	0.2070005424	2087
1168	11633	0.2070005424	2088
1168	11633	0.2070005424	2089
1168	11633	0.2070005424	2090
1168	11633	0.2070005424	2091
1168	11633	0.2070005424	2092
1168	11633	0.2070005424	2093
1168	11633	0.2070005424	2094
1168	11633	0.2070005424	2095
1168	11633	0.2070005424	2096
1168	11633	0.2070005424	2097
1168	11633	0.2070005424	2098
1168	11633	0.2070005424	2099
1168	11633	0.2070005424	2100
1168	11633	0.2070005424	2101
1168	11633	0.2070005424	2102
1168	11633	0.2070005424	2103
1168	11633	0.2070005424	2104
1168	11633	0.2070005424	2105
1168	11633	0.2070005424	2106
1168	11633	0.2070005424	2107
1172	273	0.0000007624	1
1172	287	0.0000008064	2
1171	273	0.0000007624	1
1171	287	0.0000008064	2
1173	255	0.0000006744	1
1173	265	0.0000007184	2
1174	609	0.007	2
1174	665	0.0070001912	0
1174	665	0.0070001912	2
1174	665	0.0070001912	4
1174	665	0.0070001912	6
1174	665	0.0070001912	8
1174	665	0.0070001912	10
1174	665	0.0070001912	12
1174	665	0.0070001912	14
1174	665	0.0070001912	16
1174	665	0.0070001912	18
1174	665	0.0070001912	20
1174	665	0.0070001912	22
1174	11633	0.2070005424	20
1174	11633	0.2070005424	18
1174	11633	0.2070005424	16
1174	11633	0.2070005424	14
1174	11633	0.2070005424	12
1174	11633	0.2070005424	10
1174	11633	0.2070005424	8
1174	11633	0.2070005424	6
1174	11633	0.2070005424	4
1174	11633	0.2070005424	2
1174	11633	0.2070005424	0
1174	11633	0.2070005424	2
1174	11633	0.2070005424	4
1174	11633	0.2070005424	6
1174	11633	0.2070005424	8
1174	11633	0.2070005424	10
1174	11633	0.2070005424	12
1174	11633	0.2070005424	14
1174	11633	0.2070005424	16
1174	11633	0.2070005424	18
1174	11633	0.2070005424	20
1174	11633	0.2070005424	22
1174	11633	0.2070005424	24
1174	11633	0.2070005424	26
1174	11633	0.2070005424	28
1174	11633	0.2070005424	30
1174	11633	0.2070005424	32
1174	11633	0.2070005424	34
1174	11633	0.2070005424	36
1174	11633	0.2070005424	38
1174	11633	0.2070005424	40
1174	11633	0.2070005424	42
1174	11633	0.2070005424	44
1174	11633	0.2070005424	46
1174	11633	0.2070005424	48
1174	11633	0.2070005424	50
1174	11633	0.2070005424	52
1174	11633	0.2070005424	54
1174	11633	0.2070005424	56
1174	11633	0.2070005424	58
1174	11633	0.2070005424	60
1174	11633	0.2070005424	62
1174	11633	0.2070005424	64
1174	11633	0.2070005424	66
1174	11633	0.2070005424	68
1174	11633	0.2070005424	70
1174	11633	0.2070005424	72
1174	11633	0.2070005424	74
1174	11633	0.2070005424	76
1174	11633	0.2070005424	78
1174	11633	0.2070005424	80
1174	11633	0.2070005424	82
1174	11633	0.2070005424	84
1174	11633	0.2070005424	86
1174	11633	0.2070005424	88
1174	11633	0.2070005424	90
1174	11633	0.2070005424	92
1174	11633	0.2070005424	94
1174	11633	0.2070005424	96
1174	11633	0.2070005424	98
1174	11633	0.2070005424	100
1174	11633	0.2070005424	102
1174	11633	0.2070005424	104
1174	11633	0.2070005424	106
1174	11633	0.2070005424	108
1174	11633	0.2070005424	110
1174	11633	0.2070005424	112
1174	11633	0.2070005424	114
1174	11633	0.2070005424	116
1174	11633	0.2070005424	118
1174	11633	0.2070005424	120
1174	11633	0.2070005424	122
1174	11633	0.2070005424	124
1174	11633	0.2070005424	126
1174	11633	0.2070005424	128
1174	11633	0.2070005424	130
1174	11633	0.2070005424	132
1174	11633	0.2070005424	134
1174	11633	0.2070005424	136
1174	11633	0.2070005424	138
1174	11633	0.2070005424	140
1174	11633	0.2070005424	142
1174	11633	0.2070005424	144
1174	11633	0.2070005424	146
1174	11633	0.2070005424	148
1174	11633	0.2070005424	150
1174	11633	0.2070005424	152
1174	11633	0.2070005424	154
1174	11633	0.2070005424	156
1174	11633	0.2070005424	158
1174	11633	0.2070005424	160
1174	11633	0.2070005424	162
1174	11633	0.2070005424	164
1174	11633	0.2070005424	166
1174	11633	0.2070005424	168
1174	11633	0.2070005424	170
1174	11633	0.2070005424	172
1174	11633	0.2070005424	174
1174	11633	0.2070005424	176
1174	11633	0.2070005424	178
1174	11633	0.2070005424	180
1174	11633	0.2070005424	182
1174	11633	0.2070005424	184
1174	11633	0.2070005424	186
1174	11633	0.2070005424	188
1174	11633	0.2070005424	190
1174	11633	0.2070005424	192
1174	22519	0.4070022536	190
1174	22519	0.4070022536	188
1174	22519	0.4070022536	186
1174	22519	0.4070022536	184
1174	22519	0.4070022536	182
1174	22519	0.4070022536	180
1174	22519	0.4070022536	178
1174	22519	0.4070022536	176
1174	22519	0.4070022536	174
1174	22519	0.4070022536	172
1174	22519	0.4070022536	170
1174	22519	0.4070022536	168
1174	22519	0.4070022536	166
1174	22519	0.4070022536	164
1174	22519	0.4070022536	162
1174	22519	0.4070022536	160
1174	22519	0.4070022536	158
1174	22519	0.4070022536	156
1174	22519	0.4070022536	154
1174	22519	0.4070022536	152
1174	22519	0.4070022536	150
1174	22519	0.4070022536	148
1174	22519	0.4070022536	146
1174	22519	0.4070022536	144
1174	22519	0.4070022536	142
1174	22519	0.4070022536	140
1174	22519	0.4070022536	138
1174	22519	0.4070022536	136
1174	22519	0.4070022536	134
1174	22519	0.4070022536	132
1174	22519	0.4070022536	130
1174	22519	0.4070022536	128
1174	22519	0.4070022536	126
1174	22519	0.4070022536	124
1174	22519	0.4070022536	122
1174	22519	0.4070022536	120
1174	22519	0.4070022536	118
1174	22519	0.4070022536	116
1174	22519	0.4070022536	114
1174	22519	0.4070022536	112
1174	22519	0.4070022536	110
1174	22519	0.4070022536	108
1174	22519	0.4070022536	106
1174	22519	0.4070022536	104
1174	22519	0.4070022536	102
1174	22519	0.4070022536	100
1174	22519	0.4070022536	98
1174	22519	0.4070022536	96
1174	22519	0.4070022536	94
1174	22519	0.4070022536	92
1174	22519	0.4070022536	90
1174	22519	0.4070022536	88
1174	22519	0.4070022536	86
1174	22519	0.4070022536	84
1174	22519	0.4070022536	82
1174	22519	0.4070022536	80
1174	22519	0.4070022536	78
1174	22519	0.4070022536	76
1174	22519	0.4070022536	74
1174	22519	0.4070022536	72
1174	22519	0.4070022536	70
1174	22519	0.4070022536	68
1174	22519	0.4070022536	66
1174	22519	0.4070022536	64
1174	22519	0.4070022536	62
1174	22519	0.4070022536	60
1174	22519	0.4070022536	58
1174	22519	0.4070022536	56
1174	22519	0.4070022536	54
1174	22519	0.4070022536	52
1174	22519	0.4070022536	50
1174	22519	0.4070022536	48
1174	22519	0.4070022536	46
1174	22519	0.4070022536	44
1174	22519	0.4070022536	42
1174	22519	0.4070022536	40
1174	22519	0.4070022536	38
1174	22519	0.4070022536	36
1174	22519	0.4070022536	34
1174	22519	0.4070022536	32
1174	22519	0.4070022536	30
1174	22519	0.4070022536	28
1174	22519	0.4070022536	26
1174	22519	0.4070022536	24
1174	22519	0.4070022536	22
1174	22519	0.4070022536	20
1174	22519	0.4070022536	18
1174	22519	0.4070022536	16
1174	22519	0.4070022536	14
1174	22519	0.4070022536	12
1174	22519	0.4070022536	10
1174	22519	0.4070022536	8
1174	22519	0.4070022536	6
1174	22519	0.4070022536	4
1174	22519	0.4070022536	2
1174	22519	0.4070022536	0
1175	609	0.007	2
1175	665	0.0070001912	0
1175	665	0.0070001912	2
1175	665	0.0070001912	4
1175	665	0.0070001912	6
1175	665	0.0070001912	8
1175	665	0.0070001912	10
1175	665	0.0070001912	12
1175	665	0.0070001912	14
1175	665	0.0070001912	16
1175	665	0.0070001912	18
1175	665	0.0070001912	20
1175	665	0.0070001912	22
1175	11633	0.2070005424	20
1175	11633	0.2070005424	18
1175	11633	0.2070005424	16
1175	11633	0.2070005424	14
1175	11633	0.2070005424	12
1175	11633	0.2070005424	10
1175	11633	0.2070005424	8
1175	11633	0.2070005424	6
1175	11633	0.2070005424	4
1175	11633	0.2070005424	2
1175	11633	0.2070005424	0
1175	11633	0.2070005424	2
1175	11633	0.2070005424	4
1175	11633	0.2070005424	6
1175	11633	0.2070005424	8
1175	11633	0.2070005424	10
1175	11633	0.2070005424	12
1175	11633	0.2070005424	14
1175	11633	0.2070005424	16
1175	11633	0.2070005424	18
1175	11633	0.2070005424	20
1175	11633	0.2070005424	22
1175	11633	0.2070005424	24
1175	11633	0.2070005424	26
1175	11633	0.2070005424	28
1175	11633	0.2070005424	30
1175	11633	0.2070005424	32
1175	11633	0.2070005424	34
1175	11633	0.2070005424	36
1175	11633	0.2070005424	38
1175	11633	0.2070005424	40
1175	11633	0.2070005424	42
1175	11633	0.2070005424	44
1175	11633	0.2070005424	46
1175	11633	0.2070005424	48
1175	11633	0.2070005424	50
1175	11633	0.2070005424	52
1175	11633	0.2070005424	54
1175	11633	0.2070005424	56
1175	11633	0.2070005424	58
1175	11633	0.2070005424	60
1175	11633	0.2070005424	62
1175	11633	0.2070005424	64
1175	11633	0.2070005424	66
1175	11633	0.2070005424	68
1175	11633	0.2070005424	70
1175	11633	0.2070005424	72
1175	11633	0.2070005424	74
1175	11633	0.2070005424	76
1175	11633	0.2070005424	78
1175	11633	0.2070005424	80
1175	11633	0.2070005424	82
1175	11633	0.2070005424	84
1175	11633	0.2070005424	86
1175	11633	0.2070005424	88
1175	11633	0.2070005424	90
1175	11633	0.2070005424	92
1175	11633	0.2070005424	94
1175	11633	0.2070005424	96
1175	11633	0.2070005424	98
1175	11633	0.2070005424	100
1175	11633	0.2070005424	102
1175	11633	0.2070005424	104
1175	11633	0.2070005424	106
1175	11633	0.2070005424	108
1175	11633	0.2070005424	110
1175	11633	0.2070005424	112
1175	11633	0.2070005424	114
1175	11633	0.2070005424	116
1175	11633	0.2070005424	118
1175	11633	0.2070005424	120
1175	11633	0.2070005424	122
1175	11633	0.2070005424	124
1175	11633	0.2070005424	126
1175	11633	0.2070005424	128
1175	11633	0.2070005424	130
1175	11633	0.2070005424	132
1175	11633	0.2070005424	134
1175	11633	0.2070005424	136
1175	11633	0.2070005424	138
1175	11633	0.2070005424	140
1175	11633	0.2070005424	142
1175	11633	0.2070005424	144
1175	11633	0.2070005424	146
1175	11633	0.2070005424	148
1175	11633	0.2070005424	150
1175	11633	0.2070005424	152
1175	11633	0.2070005424	154
1175	11633	0.2070005424	156
1175	11633	0.2070005424	158
1175	11633	0.2070005424	160
1175	11633	0.2070005424	162
1175	11633	0.2070005424	164
1175	11633	0.2070005424	166
1175	11633	0.2070005424	168
1175	11633	0.2070005424	170
1175	11633	0.2070005424	172
1175	11633	0.2070005424	174
1175	11633	0.2070005424	176
1175	11633	0.2070005424	178
1175	11633	0.2070005424	180
1175	11633	0.2070005424	182
1175	11633	0.2070005424	184
1175	11633	0.2070005424	186
1175	11633	0.2070005424	188
1175	11633	0.2070005424	190
1175	11633	0.2070005424	192
1175	22519	0.4070022536	190
1175	22519	0.4070022536	188
1175	22519	0.4070022536	186
1175	22519	0.4070022536	184
1175	22519	0.4070022536	182
1175	22519	0.4070022536	180
1175	22519	0.4070022536	178
1175	22519	0.4070022536	176
1175	22519	0.4070022536	174
1175	22519	0.4070022536	172
1175	22519	0.4070022536	170
1175	22519	0.4070022536	168
1175	22519	0.4070022536	166
1175	22519	0.4070022536	164
1175	22519	0.4070022536	162
1175	22519	0.4070022536	160
1175	22519	0.4070022536	158
1175	22519	0.4070022536	156
1175	22519	0.4070022536	154
1175	22519	0.4070022536	152
1175	22519	0.4070022536	150
1175	22519	0.4070022536	148
1175	22519	0.4070022536	146
1175	22519	0.4070022536	144
1175	22519	0.4070022536	142
1175	22519	0.4070022536	140
1175	22519	0.4070022536	138
1175	22519	0.4070022536	136
1175	22519	0.4070022536	134
1175	22519	0.4070022536	132
1175	22519	0.4070022536	130
1175	22519	0.4070022536	128
1175	22519	0.4070022536	126
1175	22519	0.4070022536	124
1175	22519	0.4070022536	122
1175	22519	0.4070022536	120
1175	22519	0.4070022536	118
1175	22519	0.4070022536	116
1175	22519	0.4070022536	114
1175	22519	0.4070022536	112
1175	22519	0.4070022536	110
1175	22519	0.4070022536	108
1175	22519	0.4070022536	106
1175	22519	0.4070022536	104
1175	22519	0.4070022536	102
1175	22519	0.4070022536	100
1175	22519	0.4070022536	98
[...]
818	78495	1.535	0
818	78609	1.537	0
818	78757	1.54	0
818	78851	1.542	0
818	79019	1.545	0
818	79093	1.547	0
818	79281	1.55	0
818	79355	1.552	0
818	79495	1.555	0
818	79617	1.557	0
818	79737	1.56	0
818	79879	1.562	0
818	79979	1.565	0
818	80093	1.567	0
818	80241	1.57	0
818	80335	1.572	0
818	80503	1.575	0
818	80577	1.577	0
818	80765	1.58	0
818	80839	1.582	0
818	80979	1.585	0
818	81101	1.587	0
818	81221	1.59	0
818	81363	1.592	0
818	81463	1.595	0
818	81577	1.597	0
818	81741	1.6	0
818	81835	1.602	0
818	82003	1.605	0
818	82077	1.607	0
818	82265	1.61	0
818	82339	1.612	0
818	82479	1.615	0
818	82601	1.617	0
818	82721	1.62	0
818	82863	1.622	0
818	82963	1.625	0
818	83077	1.627	0
818	83225	1.63	0
818	83319	1.632	0
818	83487	1.635	0
818	83561	1.637	0
818	83749	1.64	0
818	83823	1.642	0
818	83963	1.645	0
818	84085	1.647	0
818	84205	1.65	0
818	84347	1.652	0
818	84447	1.655	0
818	84561	1.657	0
818	84709	1.66	0
818	84803	1.662	0
818	84971	1.665	0
818	85045	1.667	0
818	85233	1.67	0
818	85307	1.672	0
818	85447	1.675	0
818	85569	1.677	0
818	85689	1.68	0
818	85831	1.682	0
818	85931	1.685	0
818	86045	1.687	0
818	86193	1.69	0
818	86287	1.692	0
818	86455	1.695	0
818	86529	1.697	0
818	86733	1.7	0
818	86807	1.702	0
818	86947	1.705	0
818	87069	1.707	0
818	87189	1.71	0
818	87331	1.712	0
818	87431	1.715	0
818	87545	1.717	0
818	87693	1.72	0
818	87787	1.722	0
818	87955	1.725	0
818	88029	1.727	0
818	88217	1.73	0
818	88291	1.732	0
818	88431	1.735	0
818	88553	1.737	0
818	88673	1.74	0
818	88815	1.742	0
818	88915	1.745	0
818	89029	1.747	0
818	89177	1.75	0
818	89271	1.752	0
818	89439	1.755	0
818	89513	1.757	0
818	89701	1.76	0
818	89775	1.762	0
818	89915	1.765	0
818	90037	1.767	0
818	90157	1.77	0
818	90299	1.772	0
818	90399	1.775	0
818	90513	1.777	0
818	90661	1.78	0
818	90755	1.782	0
818	90923	1.785	0
818	90997	1.787	0
818	91185	1.79	0
818	91259	1.792	0
818	91399	1.795	0
818	91521	1.797	0
818	91657	1.8	0
818	91799	1.802	0
818	91899	1.805	0
818	92013	1.807	0
818	92161	1.81	0
818	92255	1.812	0
818	92423	1.815	0
818	92497	1.817	0
818	92685	1.82	0
818	92759	1.822	0
818	92899	1.825	0
818	93021	1.827	0
818	93141	1.83	0
818	93283	1.832	0
818	93383	1.835	0
818	93497	1.837	0
818	93645	1.84	0
818	93739	1.842	0
818	93907	1.845	0
818	93981	1.847	0
818	94169	1.85	0
818	94243	1.852	0
818	94383	1.855	0
818	94505	1.857	0
818	94625	1.86	0
818	94767	1.862	0
818	94867	1.865	0
818	94981	1.867	0
818	95129	1.87	0
818	95223	1.872	0
818	95391	1.875	0
818	95465	1.877	0
818	95653	1.88	0
818	95727	1.882	0
818	95867	1.885	0
818	95989	1.887	0
818	96109	1.89	0
818	96251	1.892	0
818	96351	1.895	0
818	96465	1.897	0
818	96629	1.9	0
818	96723	1.902	0
818	96891	1.905	0
818	96965	1.907	0
818	97153	1.91	0
818	97227	1.912	0
818	97367	1.915	0
818	97489	1.917	0
818	97609	1.92	0
818	97751	1.922	0
818	97851	1.925	0
818	97965	1.927	0
818	98113	1.93	0
818	98207	1.932	0
818	98375	1.935	0
818	98449	1.937	0
818	98637	1.94	0
818	98711	1.942	0
818	98851	1.945	0
818	98973	1.947	0
818	99093	1.95	0
818	99235	1.952	0
818	99335	1.955	0
818	99449	1.957	0
818	99597	1.96	0
818	99691	1.962	0
818	99859	1.965	0
818	99933	1.967	0
818	100121	1.97	0
818	100195	1.972	0
818	100335	1.975	0
818	100457	1.977	0
818	100577	1.98	0
818	100719	1.982	0
818	100819	1.985	0
818	100933	1.987	0
818	101081	1.99	0
818	101175	1.992	0
818	101343	1.995	0
818	101417	1.997	0
818	101621	2	0
818	101695	2.002	0
818	101835	2.005	0
818	101957	2.007	0
818	102077	2.01	0
818	102219	2.012	0
818	102319	2.015	0
818	102433	2.017	0
818	102581	2.02	0
818	102675	2.022	0
818	102843	2.025	0
818	102917	2.027	0
818	103105	2.03	0
818	103179	2.032	0
818	103319	2.035	0
818	103441	2.037	0
818	103561	2.04	0
818	103703	2.042	0
818	103803	2.045	0
818	103917	2.047	0
818	104065	2.05	0
818	104159	2.052	0
819	5930	0.098	0
819	6309	0.103	0
819	6353	0.104	0
820	5725	0.094	0
820	5767	0.095	0
820	5891	0.097	0
820	5939	0.098	0
820	6093	0.099	0
820	6156	0.1	0
820	6262	0.102	0
820	6318	0.103	0
820	6362	0.104	0
820	6413	0.104	0
820	6720	0.109	0
820	7029	0.115	0
820	7153	0.117	0
820	7273	0.12	0
820	7415	0.122	0
820	7515	0.125	0
820	7629	0.127	0
820	7777	0.13	0
820	7871	0.132	0
820	8039	0.135	0
820	8113	0.137	0
820	8301	0.14	0
820	8375	0.142	0
820	8515	0.145	0
820	8637	0.147	0
820	8757	0.15	0
820	8899	0.152	0
820	8999	0.155	0
820	9113	0.157	0
820	9261	0.16	0
820	9355	0.162	0
820	9523	0.165	0
820	9597	0.167	0
820	9785	0.17	0
820	9859	0.172	0
820	9999	0.175	0
820	10121	0.177	0
820	10241	0.18	0
820	10383	0.182	0
820	10483	0.185	0
820	10597	0.187	0
820	10745	0.19	0
820	10839	0.192	0
820	11007	0.195	0
820	11081	0.197	0
820	11285	0.2	0
820	11359	0.202	0
820	11499	0.205	0
820	11621	0.207	0
820	12236	0.21	0
820	12378	0.212	0
820	12478	0.215	0
820	12592	0.217	0
820	12740	0.22	0
820	12834	0.222	0
820	13002	0.225	0
820	13076	0.227	0
820	13264	0.23	0
820	13338	0.232	0
820	13478	0.235	0
820	13600	0.237	0
820	13720	0.24	0
820	13862	0.242	0
820	13962	0.245	0
820	14076	0.247	0
820	14224	0.25	0
820	14318	0.252	0
820	14486	0.255	0
820	14560	0.257	0
820	15243	0.26	0
820	15317	0.262	0
820	15457	0.265	0
820	15579	0.267	0
820	15699	0.27	0
820	15841	0.272	0
820	15941	0.275	0
820	16055	0.277	0
820	16203	0.28	0
820	16297	0.282	0
820	16465	0.285	0
820	16539	0.287	0
820	16727	0.29	0
820	16801	0.292	0
820	16941	0.295	0
820	17063	0.297	0
820	17199	0.3	0
820	17341	0.302	0
820	17441	0.305	0
820	17555	0.307	0
820	17703	0.31	0
820	17797	0.312	0
820	17965	0.315	0
820	18039	0.317	0
820	18227	0.32	0
820	18301	0.322	0
820	18441	0.325	0
820	18563	0.327	0
820	18683	0.33	0
820	18825	0.332	0
820	18925	0.335	0
820	19039	0.337	0
820	19187	0.34	0
820	19281	0.342	0
820	19449	0.345	0
820	19523	0.347	0
820	19711	0.35	0
820	19785	0.352	0
820	19925	0.355	0
820	20047	0.357	0
820	20167	0.36	0
820	20309	0.362	0
820	20409	0.365	0
820	20523	0.367	0
820	20671	0.37	0
820	20765	0.372	0
820	20933	0.375	0
820	21007	0.377	0
820	21195	0.38	0
820	21269	0.382	0
820	21409	0.385	0
820	21531	0.387	0
820	21651	0.39	0
820	21793	0.392	0
820	21893	0.395	0
820	22007	0.397	0
820	22171	0.4	0
820	22265	0.402	0
820	22433	0.405	0
820	22507	0.407	0
820	22703	0.41	0
820	22777	0.412	0
820	22917	0.415	0
820	23039	0.417	0
820	23159	0.42	0
820	23301	0.422	0
820	23401	0.425	0
820	23515	0.427	0
820	23663	0.43	0
820	23757	0.432	0
820	23925	0.435	0
820	23999	0.437	0
820	24187	0.44	0
820	24261	0.442	0
820	24401	0.445	0
820	24523	0.447	0
820	24643	0.45	0
820	24785	0.452	0
820	24885	0.455	0
820	24999	0.457	0
820	25155	0.46	0
820	25249	0.462	0
820	25417	0.465	0
820	25491	0.467	0
820	25679	0.47	0
820	25753	0.472	0
820	25893	0.475	0
820	26015	0.477	0
820	26135	0.48	0
820	26277	0.482	0
820	26377	0.485	0
820	26491	0.487	0
820	26639	0.49	0
820	26733	0.492	0
820	26901	0.495	0
820	26975	0.497	0
820	27179	0.5	0
820	27253	0.502	0
820	27393	0.505	0
820	27515	0.507	0
820	27635	0.51	0
820	27777	0.512	0
820	27877	0.515	0
820	27991	0.517	0
820	28139	0.52	0
820	28233	0.522	0
820	28401	0.525	0
820	28475	0.527	0
820	28663	0.53	0
820	28737	0.532	0
820	28877	0.535	0
820	28999	0.537	0
820	29119	0.54	0
820	29261	0.542	0
820	29361	0.545	0
820	29475	0.547	0
820	29623	0.55	0
820	29717	0.552	0
820	29885	0.555	0
820	29959	0.557	0
820	30147	0.56	0
820	30221	0.562	0
820	30361	0.565	0
820	30483	0.567	0
820	30603	0.57	0
820	30745	0.572	0
820	30845	0.575	0
820	30959	0.577	0
820	31107	0.58	0
820	31201	0.582	0
820	31369	0.585	0
820	31443	0.587	0
820	31631	0.59	0
820	31705	0.592	0
820	31845	0.595	0
820	31967	0.597	0
820	32103	0.6	0
820	32245	0.602	0
820	32345	0.605	0
820	32459	0.607	0
820	32607	0.61	0
820	32701	0.612	0
820	32869	0.615	0
820	32943	0.617	0
820	33131	0.62	0
820	33205	0.622	0
820	33345	0.625	0
820	33467	0.627	0
820	33587	0.63	0
820	33729	0.632	0
820	33829	0.635	0
820	33943	0.637	0
820	34091	0.64	0
820	34185	0.642	0
820	34353	0.645	0
820	34427	0.647	0
820	34615	0.65	0
820	34689	0.652	0
820	34829	0.655	0
820	34951	0.657	0
820	35071	0.66	0
820	35213	0.662	0
820	35313	0.665	0
820	35427	0.667	0
820	35575	0.67	0
820	35669	0.672	0
820	35837	0.675	0
820	35911	0.677	0
820	36099	0.68	0
820	36173	0.682	0
820	36313	0.685	0
820	36435	0.687	0
820	36555	0.69	0
820	36697	0.692	0
820	36797	0.695	0
820	36911	0.697	0
820	37075	0.7	0
820	37169	0.702	0
820	37337	0.705	0
820	37411	0.707	0
820	37599	0.71	0
820	37673	0.712	0
820	37813	0.715	0
820	37935	0.717	0
820	38055	0.72	0
820	38197	0.722	0
820	38297	0.725	0
820	38411	0.727	0
820	38559	0.73	0
820	38653	0.732	0
820	38821	0.735	0
820	38895	0.737	0
820	39083	0.74	0
820	39157	0.742	0
820	39297	0.745	0
820	39419	0.747	0
820	39539	0.75	0
820	39681	0.752	0
820	39781	0.755	0
820	39895	0.757	0
820	40043	0.76	0
820	40137	0.762	0
820	40305	0.765	0
820	40379	0.767	0
820	40567	0.77	0
820	40641	0.772	0
820	40781	0.775	0
820	40903	0.777	0
820	41023	0.78	0
820	41165	0.782	0
820	41265	0.785	0
820	41379	0.787	0
820	41527	0.79	0
820	41621	0.792	0
820	41789	0.795	0
820	41863	0.797	0
820	42067	0.8	0
820	42141	0.802	0
820	42281	0.805	0
820	42403	0.807	0
820	42523	0.81	0
820	42665	0.812	0
820	42765	0.815	0
820	42879	0.817	0
820	43027	0.82	0
820	43121	0.822	0
820	43289	0.825	0
820	43363	0.827	0
820	43551	0.83	0
820	43625	0.832	0
820	43765	0.835	0
820	43887	0.837	0
820	44007	0.84	0
820	44149	0.842	0
820	44249	0.845	0
820	44363	0.847	0
820	44511	0.85	0
820	44605	0.852	0
820	44773	0.855	0
820	44847	0.857	0
820	45035	0.86	0
820	45109	0.862	0
820	45249	0.865	0
820	45371	0.867	0
820	45491	0.87	0
820	45633	0.872	0
820	45733	0.875	0
820	45847	0.877	0
820	45995	0.88	0
820	46089	0.882	0
820	46257	0.885	0
820	46331	0.887	0
820	46519	0.89	0
820	46593	0.892	0
820	46733	0.895	0
820	46855	0.897	0
820	46991	0.9	0
820	47133	0.902	0
820	47233	0.905	0
820	47347	0.907	0
820	47495	0.91	0
820	47589	0.912	0
820	47757	0.915	0
820	47831	0.917	0
820	48019	0.92	0
820	48093	0.922	0
820	48233	0.925	0
820	48355	0.927	0
820	48475	0.93	0
820	48617	0.932	0
820	48717	0.935	0
820	48831	0.937	0
820	48979	0.94	0
820	49073	0.942	0
820	49241	0.945	0
820	49315	0.947	0
820	49503	0.95	0
820	49577	0.952	0
820	49717	0.955	0
820	49839	0.957	0
820	49959	0.96	0
820	50101	0.962	0
820	50201	0.965	0
820	50315	0.967	0
820	50463	0.97	0
820	50557	0.972	0
820	50725	0.975	0
820	50799	0.977	0
820	50987	0.98	0
820	51061	0.982	0
820	51201	0.985	0
820	51323	0.987	0
820	51443	0.99	0
820	51585	0.992	0
820	51685	0.995	0
820	51799	0.997	0
820	51963	1	0
820	52057	1.002	0
820	52225	1.005	0
820	52299	1.007	0
820	52487	1.01	0
820	52561	1.012	0
820	52701	1.015	0
820	52823	1.017	0
820	52943	1.02	0
820	53085	1.022	0
820	53185	1.025	0
820	53299	1.027	0
820	53447	1.03	0
820	53541	1.032	0
820	53709	1.035	0
820	53783	1.037	0
820	53971	1.04	0
820	54045	1.042	0
820	54185	1.045	0
820	54307	1.047	0
820	54427	1.05	0
820	54569	1.052	0
820	54669	1.055	0
820	54783	1.057	0
820	54931	1.06	0
820	55025	1.062	0
820	55193	1.065	0
820	55267	1.067	0
820	55455	1.07	0
820	55529	1.072	0
820	55669	1.075	0
820	55791	1.077	0
820	55911	1.08	0
820	56053	1.082	0
820	56153	1.085	0
820	56267	1.087	0
820	56415	1.09	0
820	56509	1.092	0
820	56677	1.095	0
820	56751	1.097	0
820	56955	1.1	0
820	57029	1.102	0
820	57169	1.105	0
820	57291	1.107	0
820	57411	1.11	0
820	57553	1.112	0
820	57653	1.115	0
820	57767	1.117	0
820	57915	1.12	0
820	58009	1.122	0
820	58177	1.125	0
820	58251	1.127	0
820	58439	1.13	0
820	58513	1.132	0
820	58653	1.135	0
820	58775	1.137	0
820	58895	1.14	0
820	59037	1.142	0
820	59137	1.145	0
820	59251	1.147	0
820	59399	1.15	0
820	59493	1.152	0
820	59661	1.155	0
820	59735	1.157	0
820	59923	1.16	0
820	59997	1.162	0
820	60137	1.165	0
820	60259	1.167	0
820	60379	1.17	0
820	60521	1.172	0
820	60621	1.175	0
820	60735	1.177	0
820	60883	1.18	0
820	60977	1.182	0
820	61145	1.185	0
820	61219	1.187	0
820	61407	1.19	0
820	61481	1.192	0
820	61621	1.195	0
820	61743	1.197	0
820	61879	1.2	0
820	62021	1.202	0
820	62121	1.205	0
820	62235	1.207	0
820	62384	1.21	0
820	62478	1.212	0
820	62646	1.215	0
820	62720	1.217	0
820	62908	1.22	0
820	62982	1.222	0
820	63122	1.225	0
820	63244	1.227	0
820	63364	1.23	0
820	63506	1.232	0
820	63606	1.235	0
820	63720	1.237	0
820	63868	1.24	0
820	63962	1.242	0
820	64130	1.245	0
820	64204	1.247	0
820	64392	1.25	0
820	64466	1.252	0
820	64606	1.255	0
820	64728	1.257	0
820	64849	1.26	0
820	64991	1.262	0
820	65091	1.265	0
820	65205	1.267	0
820	65353	1.27	0
820	65447	1.272	0
820	65615	1.275	0
820	65689	1.277	0
820	65877	1.28	0
820	65951	1.282	0
820	66091	1.285	0
820	66213	1.287	0
820	66333	1.29	0
820	66475	1.292	0
820	66575	1.295	0
820	66689	1.297	0
820	66853	1.3	0
820	66947	1.302	0
820	67115	1.305	0
820	67189	1.307	0
820	67377	1.31	0
820	67451	1.312	0
820	67591	1.315	0
820	67713	1.317	0
820	67833	1.32	0
820	67975	1.322	0
820	68075	1.325	0
820	68189	1.327	0
820	68337	1.33	0
820	68431	1.332	0
820	68599	1.335	0
820	68673	1.337	0
820	68861	1.34	0
820	68935	1.342	0
820	69075	1.345	0
820	69197	1.347	0
820	69317	1.35	0
820	69459	1.352	0
820	69559	1.355	0
820	69673	1.357	0
820	69821	1.36	0
820	69915	1.362	0
820	70083	1.365	0
820	70157	1.367	0
820	70345	1.37	0
820	70419	1.372	0
820	70559	1.375	0
820	70681	1.377	0
820	70801	1.38	0
820	70943	1.382	0
820	71043	1.385	0
820	71157	1.387	0
820	71305	1.39	0
820	71399	1.392	0
820	71567	1.395	0
820	71641	1.397	0
820	71845	1.4	0
820	71919	1.402	0
820	72059	1.405	0
820	72181	1.407	0
820	72301	1.41	0
820	72443	1.412	0
820	72543	1.415	0
820	72657	1.417	0
820	72805	1.42	0
820	72899	1.422	0
820	73067	1.425	0
820	73141	1.427	0
820	73329	1.43	0
820	73403	1.432	0
820	73543	1.435	0
820	73665	1.437	0
820	73785	1.44	0
820	73927	1.442	0
820	74027	1.445	0
820	74141	1.447	0
820	74289	1.45	0
820	74383	1.452	0
820	74551	1.455	0
820	74625	1.457	0
820	74813	1.46	0
820	74887	1.462	0
820	75027	1.465	0
820	75149	1.467	0
820	75269	1.47	0
820	75411	1.472	0
820	75511	1.475	0
820	75625	1.477	0
820	75773	1.48	0
820	75867	1.482	0
820	76035	1.485	0
820	76109	1.487	0
820	76297	1.49	0
820	76371	1.492	0
820	76511	1.495	0
820	76633	1.497	0
820	76769	1.5	0
820	76911	1.502	0
820	77011	1.505	0
820	77125	1.507	0
820	77273	1.51	0
820	77367	1.512	0
820	77535	1.515	0
820	77609	1.517	0
820	77797	1.52	0
820	77871	1.522	0
820	78011	1.525	0
820	78133	1.527	0
820	78253	1.53	0
820	78395	1.532	0
820	78495	1.535	0
820	78609	1.537	0
820	78757	1.54	0
820	78851	1.542	0
820	79019	1.545	0
820	79093	1.547	0
820	79281	1.55	0
820	79355	1.552	0
820	79495	1.555	0
820	79617	1.557	0
820	79737	1.56	0
820	79879	1.562	0
820	79979	1.565	0
820	80093	1.567	0
820	80241	1.57	0
820	80335	1.572	0
820	80503	1.575	0
820	80577	1.577	0
820	80765	1.58	0
820	80839	1.582	0
820	80979	1.585	0
820	81101	1.587	0
820	81221	1.59	0
820	81363	1.592	0
820	81463	1.595	0
820	81577	1.597	0
820	81741	1.6	0
820	81835	1.602	0
820	82003	1.605	0
820	82077	1.607	0
820	82265	1.61	0
820	82339	1.612	0
820	82479	1.615	0
820	82601	1.617	0
820	82721	1.62	0
820	82863	1.622	0
820	82963	1.625	0
820	83077	1.627	0
820	83225	1.63	0
820	83319	1.632	0
820	83487	1.635	0
820	83561	1.637	0
820	83749	1.64	0
820	83823	1.642	0
820	83963	1.645	0
820	84085	1.647	0
820	84205	1.65	0
820	84347	1.652	0
820	84447	1.655	0
820	84561	1.657	0
820	84709	1.66	0
820	84803	1.662	0
820	84971	1.665	0
820	85045	1.667	0
820	85233	1.67	0
820	85307	1.672	0
820	85447	1.675	0
820	85569	1.677	0
820	85689	1.68	0
820	85831	1.682	0
820	85931	1.685	0
820	86045	1.687	0
820	86193	1.69	0
820	86287	1.692	0
820	86455	1.695	0
820	86529	1.697	0
820	86733	1.7	0
820	86807	1.702	0
820	86947	1.705	0
820	87069	1.707	0
820	87189	1.71	0
820	87331	1.712	0
820	87431	1.715	0
820	87545	1.717	0
820	87693	1.72	0
820	87787	1.722	0
820	87955	1.725	0
820	88029	1.727	0
820	88217	1.73	0
820	88291	1.732	0
820	88431	1.735	0
820	88553	1.737	0
820	88673	1.74	0
820	88815	1.742	0
820	88915	1.745	0
820	89029	1.747	0
820	89177	1.75	0
820	89271	1.752	0
820	89439	1.755	0
820	89513	1.757	0
820	89701	1.76	0
820	89775	1.762	0
820	89915	1.765	0
820	90037	1.767	0
820	90157	1.77	0
820	90299	1.772	0
820	90399	1.775	0
820	90513	1.777	0
820	90661	1.78	0
820	90755	1.782	0
820	90923	1.785	0
820	90997	1.787	0
820	91185	1.79	0
820	91259	1.792	0
820	91399	1.795	0
820	91521	1.797	0
820	91657	1.8	0
820	91799	1.802	0
820	91899	1.805	0
820	92013	1.807	0
820	92161	1.81	0
820	92255	1.812	0
820	92423	1.815	0
820	92497	1.817	0
820	92685	1.82	0
820	92759	1.822	0
820	92899	1.825	0
820	93021	1.827	0
820	93141	1.83	0
820	93283	1.832	0
820	93383	1.835	0
820	93497	1.837	0
820	93645	1.84	0
820	93739	1.842	0
820	93907	1.845	0
820	93981	1.847	0
820	94169	1.85	0
820	94243	1.852	0
820	94383	1.855	0
820	94505	1.857	0
820	94625	1.86	0
820	94767	1.862	0
820	94867	1.865	0
820	94981	1.867	0
820	95129	1.87	0
820	95223	1.872	0
820	95391	1.875	0
820	95465	1.877	0
820	95653	1.88	0
820	95727	1.882	0
820	95867	1.885	0
820	95989	1.887	0
820	96109	1.89	0
820	96251	1.892	0
820	96351	1.895	0
820	96465	1.897	0
820	96629	1.9	0
820	96723	1.902	0
820	96891	1.905	0
820	96965	1.907	0
820	97153	1.91	0
820	97227	1.912	0
820	97367	1.915	0
820	97489	1.917	0
820	97609	1.92	0
820	97751	1.922	0
820	97851	1.925	0
820	97965	1.927	0
820	98113	1.93	0
820	98207	1.932	0
820	98375	1.935	0
820	98449	1.937	0
820	98637	1.94	0
820	98711	1.942	0
820	98851	1.945	0
820	98973	1.947	0
820	99093	1.95	0
820	99235	1.952	0
820	99335	1.955	0
820	99449	1.957	0
820	99597	1.96	0
820	99691	1.962	0
820	99859	1.965	0
820	99933	1.967	0
820	100121	1.97	0
820	100195	1.972	0
820	100335	1.975	0
820	100457	1.977	0
820	100577	1.98	0
820	100719	1.982	0
820	100819	1.985	0
820	100933	1.987	0
820	101081	1.99	0
820	101175	1.992	0
820	101343	1.995	0
820	101417	1.997	0
820	101621	2	0
820	101695	2.002	0
820	101835	2.005	0
820	101957	2.007	0
820	102077	2.01	0
820	102219	2.012	0
820	102319	2.015	0
820	102433	2.017	0
820	102581	2.02	0
820	102675	2.022	0
820	102843	2.025	0
820	102917	2.027	0
820	103105	2.03	0
820	103179	2.032	0
820	103319	2.035	0
820	103441	2.037	0
820	103561	2.04	0
820	103703	2.042	0
820	103803	2.045	0
820	103917	2.047	0
820	104065	2.05	0
820	104159	2.052	0
839	0	0	1
1319	985	0.013945144669	7504
1320	985	0.013945144669	7504
1322	985	0.013945144669	0
1333	985	0.013945144669	0
1343	1315	0.020429364846	7504
1344	1315	0.020429364846	7504
1346	1315	0.020429364846	0
1357	1315	0.020429364846	0
1367	1416	0.023409340573	7504
1368	1416	0.023409340573	7504
1370	1416	0.023409340573	0
1381	1416	0.023409340573	0
1391	1735	0.029577355213	7504
1392	1735	0.029577355213	7504
1394	1735	0.029577355213	0
1405	1735	0.029577355213	0
1415	1905	0.031389955268	7504
1416	1905	0.031389955268	7504
1418	1905	0.031389955268	0
1429	1905	0.031389955268	0
1439	1978	0.032763117831	7504
1440	1978	0.032763117831	7504
1442	1978	0.032763117831	0
1453	1978	0.032763117831	0
1463	1986	0.03277608233	7504
1464	1986	0.03277608233	7504
1466	1986	0.03277608233	0
1477	1986	0.03277608233	0
1487	2040	0.033984720812	7504
1488	2040	0.033984720812	7504
1490	2040	0.033984720812	0
1501	2040	0.033984720812	0
1511	3131	0.051714848483	7504
1512	3131	0.051714848483	7504
1514	3131	0.051714848483	0
1525	3131	0.051714848483	0
1535	3671	0.059049774688	7504
1536	3671	0.059049774688	7504
1538	3671	0.059049774688	0
1549	3671	0.059049774688	0
1559	3729	0.060278170027	7504
1560	3729	0.060278170027	7504
1562	3729	0.060278170027	0
1573	3729	0.060278170027	0
1583	3872	0.062601716756	7504
1584	3872	0.062601716756	7504
1586	3872	0.062601716756	0
1597	3872	0.062601716756	0
1607	4696	0.076266208328	7504
1608	4696	0.076266208328	7504
1610	4696	0.076266208328	0
1621	4696	0.076266208328	0
1631	5023	0.082919128996	7504
1632	5023	0.082919128996	7504
1634	5023	0.082919128996	0
1645	5023	0.082919128996	0
1655	5061	0.083256449993	7504
1656	5061	0.083256449993	7504
1658	5061	0.083256449993	0
1669	5061	0.083256449993	0
1679	5334	0.087465974346	7504
1680	5334	0.087465974346	7504
1682	5334	0.087465974346	0
1693	5334	0.087465974346	0
1703	5404	0.089455451544	7504
1704	5404	0.089455451544	7504
1706	5404	0.089455451544	0
1717	5404	0.089455451544	0
1727	5684	0.093058322349	7504
1728	5684	0.093058322349	7504
1730	5684	0.093058322349	0
1741	5684	0.093058322349	0
1751	5692	0.093147725489	7504
1752	5692	0.093147725489	7504
1754	5692	0.093147725489	0
1765	5692	0.093147725489	0
1775	6016	0.098821217397	7504
1776	6016	0.098821217397	7504
1778	6016	0.098821217397	0
1789	6016	0.098821217397	0
