version 2
run CAIN-83-20200508-16:34:29-13083
attr configname CAIN
attr datetime 20200508-16:34:29
attr dist 200
attr experiment CAIN
attr extAllocType "\"RANDOM_ALLOC\""
attr inifile omnetpp.ini
attr iterationvars "$numUe=20, $pwr=-50, $dist=200, $mob=\"./movements/RWPRPGM-0.5.movements\", $extAllocType=\"RANDOM_ALLOC\""
attr iterationvars2 "$numUe=20, $pwr=-50, $dist=200, $mob=\"./movements/RWPRPGM-0.5.movements\", $extAllocType=\"RANDOM_ALLOC\", $repetition=3"
attr measurement "$numUe=20, $pwr=-50, $dist=200, $mob=\"./movements/RWPRPGM-0.5.movements\", $extAllocType=\"RANDOM_ALLOC\""
attr mob "\"./movements/RWPRPGM-0.5.movements\""
attr network lte.simulations.networks.CAIN
attr numUe 20
attr processid 13083
attr pwr -50
attr repetition 3
attr replication #3
attr resultdir results
attr runnumber 83
attr seedset 3
param **.**.amcMode "\"AUTO\""
param **.amcMode "\"D2D\""
param **.cainNetwork true
param **.channelControl.alpha 1.0
param **.channelControl.carrierFrequency 2100e+6Hz
param **.channelControl.pMax 10W
param **.d2dCqi 7
param **.deployer.numRbDl 50
param **.deployer.numRbUl 50
param **.distThresh ${dist=200}
param **.fbDelay 1
param **.feedbackComputation "xmldoc(\"config_channel.xml\")"
param **.mobility.constraintAreaMaxX 1000m
param **.mobility.constraintAreaMaxY 1000m
param **.mobility.constraintAreaMaxZ 0m
param **.mobility.constraintAreaMinX 0m
param **.mobility.constraintAreaMinY 0m
param **.mobility.constraintAreaMinZ 0m
param **.nic.phy.channelModel "xmldoc(\"config_channel.xml\")"
param **.numBands 50
param **.pwrThresh "${pwr= -50}"
param **.qtdThresh 3
param **.rbAllocationType "\"localized\""
param **.routingRecorder.enabled false
param **.tcpApp[*].tClose -1s
param **.ueD2DTx[*].mobility.changeAngleBy "normal(0deg, 30deg)"
param **.ueD2DTx[*].mobility.changeInterval "normal(5s, 0.1s)"
param **.ueD2DTx[*].mobility.nodeId -1
param **.ueD2DTx[*].mobility.speed "normal(2mps, 0.01mps)"
param **.ueD2DTx[*].mobility.traceFile "${mob=\"./movements/RWP-0.0.movements\",\"./movements/RWP-0.5.movements\",\"./movements/RPGM-0.0.movements\",\"./movements/RPGM-0.5.movements\",\"./movements/RWPRPGM-0.0.movements\",\"./movements/RWPRPGM-0.5.movements\"}"
param **.ueD2DTx[*].mobilityType "\"BonnMotionMobility\""
param **.usePreconfiguredTxParams false
param *.eNodeB*.numX2Apps 1
param *.eNodeB*.x2App[*].server.localPort "5000 + ancestorIndex(1)"
param *.eNodeB.d2dCapable false
param *.eNodeB.mobility.initFromDisplayString false
param *.eNodeB.mobility.initialX 300m
param *.eNodeB.mobility.initialY 300m
param *.eNodeB.nic.phy.enableD2DCqiReporting true
param *.eNodeB.txPower 19952.62315mw
param *.eNodeB.x2App[0].client.connectAddress "\"eNodeB1%x2ppp0\""
param *.eNodeB1.d2dCapable true
param *.eNodeB1.mobility.initFromDisplayString false
param *.eNodeB1.mobility.initialX 700m
param *.eNodeB1.mobility.initialY 300m
param *.eNodeB1.nic.phy.enableD2DCqiReporting true
param *.eNodeB1.txPower 19952.62315mw
param *.eNodeB1.x2App[0].client.connectAddress "\"eNodeB%x2ppp0\""
param *.extCell[*].bandAllocationType "${extAllocType=\"FULL_ALLOC\",\"RANDOM_ALLOC\",\"CONTIGUOUS_ALLOC\"}"
param *.extCell[*].bandUtilization 0.5
param *.extCell[*].txDirection "\"ANISOTROPIC\""
param *.extCell[*].txPower 20
param *.extCell[0].position_x 100m
param *.extCell[0].position_y 600m
param *.extCell[0].txAngle 315
param *.extCell[1].position_x 600m
param *.extCell[1].position_y 600m
param *.extCell[1].txAngle 225
param *.numExtCells 2
param *.numUeCell 0
param *.numUeD2DRx 1
param *.numUeD2DTx 1
param *.ue*.macCellId 1
param *.ue*.masterId 1
param *.ue*.mobility.initFromDisplayString false
param *.ue*[0].macCellId 1
param *.ue*[0].masterId 1
param *.ue*[0].mobility.initFromDisplayString false
param *.ueD2D*.numTcpApps 1
param *.ueD2D*[*].d2dCapable true
param *.ueD2D*[0].d2dCapable false
param *.ueD2D*[0].numTcpApps 1
param *.ueD2DRx[0].mobility.initialX 310m
param *.ueD2DRx[0].mobility.initialY 350m
param *.ueD2DRx[0].tcpApp[*].localPort 1000
param *.ueD2DRx[0].tcpApp[*].typename "\"TCPSinkApp\""
param *.ueD2DTx*.nic.d2dPeerAddresses "\"ueD2DTx[1]\""
param *.ueD2DTx*.tcpApp[*].connectAddress "\"ueD2DTx[0]\""
param *.ueD2DTx*.tcpApp[*].localAddress "\"ueD2DTx\""
param *.ueD2DTx*.tcpApp[*].localPort 1000
param *.ueD2DTx*.tcpApp[*].sendBytes 1GiB
param *.ueD2DTx*.tcpApp[*].typename "\"TCPSessionApp\""
param *.ueD2DTx*.tcpApp[0].active true
param *.ueD2DTx*.tcpApp[0].connectPort 1000
param *.ueD2DTx*.tcpApp[0].tOpen uniform(0.010s,0.1s)
param *.ueD2DTx*.tcpApp[0].tSend uniform(0.15s,0.5s)
param *.ueD2DTx[0].mobility.initialX 290m
param *.ueD2DTx[0].mobility.initialY 350m
param *.ueD2DTx[0].tcpApp[*].localPort 1000
param *.ueD2DTx[0].tcpApp[*].sendBytes 1GiB
param *.ueD2DTx[0].tcpApp[*].typename "\"TCPSessionApp\""
param *.ueD2DTx[0].tcpApp[0].active true
param *.ueD2DTx[0].tcpApp[0].connectAddress "\"ueD2DRx[0]\""
param *.ueD2DTx[0].tcpApp[0].connectPort 1000
param *.ueD2DTx[0].tcpApp[0].localAddress "\"ueD2DTx[0]\""
param *.ueD2DTx[0].tcpApp[0].tOpen uniform(0.010s,0.1s)
param *.ueD2DTx[0].tcpApp[0].tSend uniform(0.15s,0.5s)
param *.ueD2DTx[1].mobility.initialX 690m
param *.ueD2DTx[1].mobility.initialY 250m

vector 8  CAIN.server.ppp[0].queue  queueLength:vector  ETV
attr interpolationmode  sample-hold
attr title  "queue length, vector"
vector 9  CAIN.server.ppp[0].ppp  txState:vector  ETV
attr interpolationmode  sample-hold
attr title  "tx state, vector"
vector 24  CAIN.router.ppp[0].queue  queueLength:vector  ETV
attr interpolationmode  sample-hold
attr title  "queue length, vector"
vector 25  CAIN.router.ppp[0].ppp  txState:vector  ETV
attr interpolationmode  sample-hold
attr title  "tx state, vector"
vector 35  CAIN.router.ppp[1].queue  queueLength:vector  ETV
attr interpolationmode  sample-hold
attr title  "queue length, vector"
vector 36  CAIN.router.ppp[1].ppp  txState:vector  ETV
attr interpolationmode  sample-hold
attr title  "tx state, vector"
vector 56  CAIN.pgw.ppp[0].queue  queueLength:vector  ETV
attr interpolationmode  sample-hold
attr title  "queue length, vector"
vector 57  CAIN.pgw.ppp[0].ppp  txState:vector  ETV
attr interpolationmode  sample-hold
attr title  "tx state, vector"
vector 67  CAIN.pgw.ppp[1].queue  queueLength:vector  ETV
attr interpolationmode  sample-hold
attr title  "queue length, vector"
vector 68  CAIN.pgw.ppp[1].ppp  txState:vector  ETV
attr interpolationmode  sample-hold
attr title  "tx state, vector"
vector 78  CAIN.pgw.pppInterface.queue  queueLength:vector  ETV
attr interpolationmode  sample-hold
attr title  "queue length, vector"
vector 79  CAIN.pgw.pppInterface.ppp  txState:vector  ETV
attr interpolationmode  sample-hold
attr title  "tx state, vector"
vector 120  CAIN.eNodeB.pppIf.queue  queueLength:vector  ETV
attr interpolationmode  sample-hold
attr title  "queue length, vector"
vector 121  CAIN.eNodeB.pppIf.ppp  txState:vector  ETV
attr interpolationmode  sample-hold
attr title  "tx state, vector"
vector 131  CAIN.eNodeB.x2ppp[0].queue  queueLength:vector  ETV
attr interpolationmode  sample-hold
attr title  "queue length, vector"
vector 132  CAIN.eNodeB.x2ppp[0].ppp  txState:vector  ETV
attr interpolationmode  sample-hold
attr title  "tx state, vector"
vector 178  CAIN.eNodeB1.pppIf.queue  queueLength:vector  ETV
attr interpolationmode  sample-hold
attr title  "queue length, vector"
vector 179  CAIN.eNodeB1.pppIf.ppp  txState:vector  ETV
attr interpolationmode  sample-hold
attr title  "tx state, vector"
vector 189  CAIN.eNodeB1.x2ppp[0].queue  queueLength:vector  ETV
attr interpolationmode  sample-hold
attr title  "queue length, vector"
vector 190  CAIN.eNodeB1.x2ppp[0].ppp  txState:vector  ETV
attr interpolationmode  sample-hold
attr title  "tx state, vector"
vector 231  CAIN.ueD2DTx[0].nic.phy  servingCell:vector  ETV
attr source  servingCell
attr title  "ID of the serving eNodeB for the UE, vector"
attr unit  ""
vector 263  CAIN.ueD2DTx[1].nic.phy  servingCell:vector  ETV
attr source  servingCell
attr title  "ID of the serving eNodeB for the UE, vector"
attr unit  ""
vector 295  CAIN.ueD2DTx[2].nic.phy  servingCell:vector  ETV
attr source  servingCell
attr title  "ID of the serving eNodeB for the UE, vector"
attr unit  ""
vector 327  CAIN.ueD2DTx[3].nic.phy  servingCell:vector  ETV
attr source  servingCell
attr title  "ID of the serving eNodeB for the UE, vector"
attr unit  ""
vector 359  CAIN.ueD2DTx[4].nic.phy  servingCell:vector  ETV
attr source  servingCell
attr title  "ID of the serving eNodeB for the UE, vector"
attr unit  ""
vector 391  CAIN.ueD2DTx[5].nic.phy  servingCell:vector  ETV
attr source  servingCell
attr title  "ID of the serving eNodeB for the UE, vector"
attr unit  ""
vector 423  CAIN.ueD2DTx[6].nic.phy  servingCell:vector  ETV
attr source  servingCell
attr title  "ID of the serving eNodeB for the UE, vector"
attr unit  ""
vector 455  CAIN.ueD2DTx[7].nic.phy  servingCell:vector  ETV
attr source  servingCell
attr title  "ID of the serving eNodeB for the UE, vector"
attr unit  ""
vector 487  CAIN.ueD2DTx[8].nic.phy  servingCell:vector  ETV
attr source  servingCell
attr title  "ID of the serving eNodeB for the UE, vector"
attr unit  ""
vector 519  CAIN.ueD2DTx[9].nic.phy  servingCell:vector  ETV
attr source  servingCell
attr title  "ID of the serving eNodeB for the UE, vector"
attr unit  ""
vector 551  CAIN.ueD2DTx[10].nic.phy  servingCell:vector  ETV
attr source  servingCell
attr title  "ID of the serving eNodeB for the UE, vector"
attr unit  ""
vector 583  CAIN.ueD2DTx[11].nic.phy  servingCell:vector  ETV
attr source  servingCell
attr title  "ID of the serving eNodeB for the UE, vector"
attr unit  ""
vector 615  CAIN.ueD2DTx[12].nic.phy  servingCell:vector  ETV
attr source  servingCell
attr title  "ID of the serving eNodeB for the UE, vector"
attr unit  ""
vector 647  CAIN.ueD2DTx[13].nic.phy  servingCell:vector  ETV
attr source  servingCell
attr title  "ID of the serving eNodeB for the UE, vector"
attr unit  ""
vector 679  CAIN.ueD2DTx[14].nic.phy  servingCell:vector  ETV
attr source  servingCell
attr title  "ID of the serving eNodeB for the UE, vector"
attr unit  ""
vector 711  CAIN.ueD2DTx[15].nic.phy  servingCell:vector  ETV
attr source  servingCell
attr title  "ID of the serving eNodeB for the UE, vector"
attr unit  ""
vector 743  CAIN.ueD2DTx[16].nic.phy  servingCell:vector  ETV
attr source  servingCell
attr title  "ID of the serving eNodeB for the UE, vector"
attr unit  ""
vector 775  CAIN.ueD2DTx[17].nic.phy  servingCell:vector  ETV
attr source  servingCell
attr title  "ID of the serving eNodeB for the UE, vector"
attr unit  ""
vector 807  CAIN.ueD2DTx[18].nic.phy  servingCell:vector  ETV
attr source  servingCell
attr title  "ID of the serving eNodeB for the UE, vector"
attr unit  ""
vector 839  CAIN.ueD2DTx[19].nic.phy  servingCell:vector  ETV
attr source  servingCell
attr title  "ID of the serving eNodeB for the UE, vector"
attr unit  ""
vector 863  CAIN.eNodeB.sctp  "Throughput of Association 3"  ETV
vector 885  CAIN.eNodeB1.sctp  "Throughput of Association 4"  ETV
vector 907  CAIN.eNodeB.sctp  "Throughput of Association 1"  ETV
vector 927  CAIN.eNodeB.sctp  "Fast Recovery State 1:10.0.5.2"  ETV
vector 956  CAIN.eNodeB1.sctp  "Throughput of Association 2"  ETV
vector 976  CAIN.eNodeB1.sctp  "Fast Recovery State 2:10.0.5.1"  ETV
vector 128  CAIN.eNodeB.x2ppp[0].queue  rcvdPk:vector(packetBytes)  ETV
attr interpolationmode  none
attr title  "received packets, vector(packetBytes)"
vector 130  CAIN.eNodeB.x2ppp[0].queue  queueingTime:vector  ETV
attr interpolationmode  none
attr title  "queueing time, vector"
vector 186  CAIN.eNodeB1.x2ppp[0].queue  rcvdPk:vector(packetBytes)  ETV
attr interpolationmode  none
attr title  "received packets, vector(packetBytes)"
vector 188  CAIN.eNodeB1.x2ppp[0].queue  queueingTime:vector  ETV
attr interpolationmode  none
attr title  "queueing time, vector"
vector 137  CAIN.eNodeB.x2ppp[0].ppp  rcvdPkFromHL:vector(packetBytes)  ETV
attr interpolationmode  none
attr source  packetReceivedFromUpper
attr title  "packets received from higher layer, vector(packetBytes)"
vector 133  CAIN.eNodeB.x2ppp[0].ppp  txPk:vector(packetBytes)  ETV
attr interpolationmode  none
attr source  packetSentToLower
attr title  "packets transmitted, vector(packetBytes)"
vector 195  CAIN.eNodeB1.x2ppp[0].ppp  rcvdPkFromHL:vector(packetBytes)  ETV
attr interpolationmode  none
attr source  packetReceivedFromUpper
attr title  "packets received from higher layer, vector(packetBytes)"
vector 191  CAIN.eNodeB1.x2ppp[0].ppp  txPk:vector(packetBytes)  ETV
attr interpolationmode  none
attr source  packetSentToLower
attr title  "packets transmitted, vector(packetBytes)"
vector 192  CAIN.eNodeB1.x2ppp[0].ppp  rxPkOk:vector(packetBytes)  ETV
attr interpolationmode  none
attr source  rxPkOk
attr title  "packets received OK, vector(packetBytes)"
vector 196  CAIN.eNodeB1.x2ppp[0].ppp  passedUpPk:vector(packetBytes)  ETV
attr interpolationmode  none
attr source  packetSentToUpper
attr title  "packets passed to higher layer, vector(packetBytes)"
vector 134  CAIN.eNodeB.x2ppp[0].ppp  rxPkOk:vector(packetBytes)  ETV
attr interpolationmode  none
attr source  rxPkOk
attr title  "packets received OK, vector(packetBytes)"
vector 138  CAIN.eNodeB.x2ppp[0].ppp  passedUpPk:vector(packetBytes)  ETV
attr interpolationmode  none
attr source  packetSentToUpper
attr title  "packets passed to higher layer, vector(packetBytes)"
vector 1005  CAIN.eNodeB1.sctp  "Throughput of Association 4"  ETV
vector 882  CAIN.eNodeB1.sctp  "Peer Rwnd 4"  ETV
vector 1025  CAIN.eNodeB1.sctp  "Fast Recovery State 5:10.0.4.1"  ETV
vector 1052  CAIN.eNodeB1.sctp  "Fast Recovery State 5:10.0.2.2"  ETV
vector 1079  CAIN.eNodeB1.sctp  "Fast Recovery State 5:10.0.5.1"  ETV
vector 1108  CAIN.eNodeB.sctp  "Throughput of Association 3"  ETV
vector 860  CAIN.eNodeB.sctp  "Peer Rwnd 3"  ETV
vector 1128  CAIN.eNodeB.sctp  "Fast Recovery State 6:10.0.4.2"  ETV
vector 1155  CAIN.eNodeB.sctp  "Fast Recovery State 6:10.0.3.2"  ETV
vector 1182  CAIN.eNodeB.sctp  "Fast Recovery State 6:10.0.5.2"  ETV
vector 904  CAIN.eNodeB.sctp  "Peer Rwnd 1"  ETV
vector 1209  CAIN.eNodeB.sctp  "Fast Recovery State 1:10.0.4.2"  ETV
vector 1236  CAIN.eNodeB.sctp  "Fast Recovery State 1:10.0.3.2"  ETV
vector 953  CAIN.eNodeB1.sctp  "Peer Rwnd 2"  ETV
vector 1263  CAIN.eNodeB1.sctp  "Fast Recovery State 2:10.0.4.1"  ETV
vector 1290  CAIN.eNodeB1.sctp  "Fast Recovery State 2:10.0.2.2"  ETV
vector 1035  CAIN.eNodeB1.sctp  "Slow Start Threshold 5:10.0.2.2"  ETV
vector 1036  CAIN.eNodeB1.sctp  "Congestion Window 5:10.0.2.2"  ETV
vector 1037  CAIN.eNodeB1.sctp  "Bandwidth 5:10.0.2.2"  ETV
vector 1040  CAIN.eNodeB1.sctp  "HB Sent 5:10.0.2.2"  ETV
vector 1033  CAIN.eNodeB1.sctp  "RTO 5:10.0.2.2"  ETV
vector 1008  CAIN.eNodeB1.sctp  "Slow Start Threshold 5:10.0.4.1"  ETV
vector 1009  CAIN.eNodeB1.sctp  "Congestion Window 5:10.0.4.1"  ETV
vector 1010  CAIN.eNodeB1.sctp  "Bandwidth 5:10.0.4.1"  ETV
vector 1013  CAIN.eNodeB1.sctp  "HB Sent 5:10.0.4.1"  ETV
vector 1006  CAIN.eNodeB1.sctp  "RTO 5:10.0.4.1"  ETV
vector 1062  CAIN.eNodeB1.sctp  "Slow Start Threshold 5:10.0.5.1"  ETV
vector 1063  CAIN.eNodeB1.sctp  "Congestion Window 5:10.0.5.1"  ETV
vector 1064  CAIN.eNodeB1.sctp  "Bandwidth 5:10.0.5.1"  ETV
vector 1060  CAIN.eNodeB1.sctp  "RTO 5:10.0.5.1"  ETV
vector 1138  CAIN.eNodeB.sctp  "Slow Start Threshold 6:10.0.3.2"  ETV
vector 1139  CAIN.eNodeB.sctp  "Congestion Window 6:10.0.3.2"  ETV
vector 1140  CAIN.eNodeB.sctp  "Bandwidth 6:10.0.3.2"  ETV
vector 1143  CAIN.eNodeB.sctp  "HB Sent 6:10.0.3.2"  ETV
vector 1136  CAIN.eNodeB.sctp  "RTO 6:10.0.3.2"  ETV
vector 1111  CAIN.eNodeB.sctp  "Slow Start Threshold 6:10.0.4.2"  ETV
vector 1112  CAIN.eNodeB.sctp  "Congestion Window 6:10.0.4.2"  ETV
vector 1113  CAIN.eNodeB.sctp  "Bandwidth 6:10.0.4.2"  ETV
vector 1116  CAIN.eNodeB.sctp  "HB Sent 6:10.0.4.2"  ETV
vector 1109  CAIN.eNodeB.sctp  "RTO 6:10.0.4.2"  ETV
vector 1165  CAIN.eNodeB.sctp  "Slow Start Threshold 6:10.0.5.2"  ETV
vector 1166  CAIN.eNodeB.sctp  "Congestion Window 6:10.0.5.2"  ETV
vector 1167  CAIN.eNodeB.sctp  "Bandwidth 6:10.0.5.2"  ETV
vector 1163  CAIN.eNodeB.sctp  "RTO 6:10.0.5.2"  ETV
vector 916  CAIN.eNodeB.sctp  "HB ACK Sent 1:10.0.5.2"  ETV
vector 917  CAIN.eNodeB.sctp  "HB Received 1:10.0.5.2"  ETV
vector 965  CAIN.eNodeB1.sctp  "HB ACK Sent 2:10.0.5.1"  ETV
vector 966  CAIN.eNodeB1.sctp  "HB Received 2:10.0.5.1"  ETV
vector 1219  CAIN.eNodeB.sctp  "Slow Start Threshold 1:10.0.3.2"  ETV
vector 1220  CAIN.eNodeB.sctp  "Congestion Window 1:10.0.3.2"  ETV
vector 1221  CAIN.eNodeB.sctp  "Bandwidth 1:10.0.3.2"  ETV
vector 1224  CAIN.eNodeB.sctp  "HB Sent 1:10.0.3.2"  ETV
vector 1217  CAIN.eNodeB.sctp  "RTO 1:10.0.3.2"  ETV
vector 1192  CAIN.eNodeB.sctp  "Slow Start Threshold 1:10.0.4.2"  ETV
vector 1193  CAIN.eNodeB.sctp  "Congestion Window 1:10.0.4.2"  ETV
vector 1194  CAIN.eNodeB.sctp  "Bandwidth 1:10.0.4.2"  ETV
vector 1197  CAIN.eNodeB.sctp  "HB Sent 1:10.0.4.2"  ETV
vector 1190  CAIN.eNodeB.sctp  "RTO 1:10.0.4.2"  ETV
vector 910  CAIN.eNodeB.sctp  "Slow Start Threshold 1:10.0.5.2"  ETV
vector 911  CAIN.eNodeB.sctp  "Congestion Window 1:10.0.5.2"  ETV
vector 912  CAIN.eNodeB.sctp  "Bandwidth 1:10.0.5.2"  ETV
vector 908  CAIN.eNodeB.sctp  "RTO 1:10.0.5.2"  ETV
vector 1273  CAIN.eNodeB1.sctp  "Slow Start Threshold 2:10.0.2.2"  ETV
vector 1274  CAIN.eNodeB1.sctp  "Congestion Window 2:10.0.2.2"  ETV
vector 1275  CAIN.eNodeB1.sctp  "Bandwidth 2:10.0.2.2"  ETV
vector 1278  CAIN.eNodeB1.sctp  "HB Sent 2:10.0.2.2"  ETV
vector 1271  CAIN.eNodeB1.sctp  "RTO 2:10.0.2.2"  ETV
vector 1246  CAIN.eNodeB1.sctp  "Slow Start Threshold 2:10.0.4.1"  ETV
vector 1247  CAIN.eNodeB1.sctp  "Congestion Window 2:10.0.4.1"  ETV
vector 1248  CAIN.eNodeB1.sctp  "Bandwidth 2:10.0.4.1"  ETV
vector 1251  CAIN.eNodeB1.sctp  "HB Sent 2:10.0.4.1"  ETV
vector 1244  CAIN.eNodeB1.sctp  "RTO 2:10.0.4.1"  ETV
vector 959  CAIN.eNodeB1.sctp  "Slow Start Threshold 2:10.0.5.1"  ETV
vector 960  CAIN.eNodeB1.sctp  "Congestion Window 2:10.0.5.1"  ETV
vector 961  CAIN.eNodeB1.sctp  "Bandwidth 2:10.0.5.1"  ETV
vector 957  CAIN.eNodeB1.sctp  "RTO 2:10.0.5.1"  ETV
vector 1173  CAIN.eNodeB.sctp  "HB ACK Received 6:10.0.5.2"  ETV
vector 1164  CAIN.eNodeB.sctp  "RTT 6:10.0.5.2"  ETV
vector 1070  CAIN.eNodeB1.sctp  "HB ACK Received 5:10.0.5.1"  ETV
vector 1061  CAIN.eNodeB1.sctp  "RTT 5:10.0.5.1"  ETV
vector 1171  CAIN.eNodeB.sctp  "HB ACK Sent 6:10.0.5.2"  ETV
vector 1172  CAIN.eNodeB.sctp  "HB Received 6:10.0.5.2"  ETV
vector 1068  CAIN.eNodeB1.sctp  "HB ACK Sent 5:10.0.5.1"  ETV
vector 1069  CAIN.eNodeB1.sctp  "HB Received 5:10.0.5.1"  ETV
vector 967  CAIN.eNodeB1.sctp  "HB ACK Received 2:10.0.5.1"  ETV
vector 958  CAIN.eNodeB1.sctp  "RTT 2:10.0.5.1"  ETV
vector 918  CAIN.eNodeB.sctp  "HB ACK Received 1:10.0.5.2"  ETV
vector 909  CAIN.eNodeB.sctp  "RTT 1:10.0.5.2"  ETV
vector 96  CAIN.eNodeB.nic.mac  receivedPacketFromLowerLayer:vector(packetBytes)  ETV
attr interpolationmode  none
attr source  receivedPacketFromLowerLayer
vector 1305  CAIN.eNodeB.sctp  "SendQueue of Association 6"  ETV
vector 1168  CAIN.eNodeB.sctp  "TSN Sent 6:10.0.5.2"  ETV
vector 1175  CAIN.eNodeB.sctp  "Outstanding Bytes 6:10.0.5.2"  ETV
vector 848  CAIN.eNodeB.sctp  "Outstanding Bytes 3:Total"  ETV
vector 1174  CAIN.eNodeB.sctp  "Queued Sent Bytes 6:10.0.5.2"  ETV
vector 847  CAIN.eNodeB.sctp  "Queued Sent Bytes 3:Total"  ETV
vector 963  CAIN.eNodeB1.sctp  "TSN Received 2:10.0.5.1"  ETV
vector 939  CAIN.eNodeB1.sctp  "Queued Received Bytes 2:Total"  ETV
vector 935  CAIN.eNodeB1.sctp  "Advertised Receiver Window 2"  ETV
vector 944  CAIN.eNodeB1.sctp  "Number of Total Gap Blocks Stored 2"  ETV
vector 945  CAIN.eNodeB1.sctp  "Number of Revokable Gap Blocks Stored 2"  ETV
vector 946  CAIN.eNodeB1.sctp  "Number of Non-Revokable Gap Blocks Stored 2"  ETV
vector 947  CAIN.eNodeB1.sctp  "Number of Duplicate TSNs Stored 2"  ETV
vector 951  CAIN.eNodeB1.sctp  "Length of SACK Sent 2"  ETV
vector 948  CAIN.eNodeB1.sctp  "Number of Revokable Gap Blocks Sent 2"  ETV
vector 949  CAIN.eNodeB1.sctp  "Number of Non-Revokable Gap Blocks Sent 2"  ETV
vector 950  CAIN.eNodeB1.sctp  "Number of Duplicate TSNs Sent 2"  ETV
vector 955  CAIN.eNodeB1.sctp  "End to End Delay of Association 2"  ETV
vector 199  CAIN.eNodeB1.x2App[0].client  rcvdPk:vector(packetBytes)  ETV
attr interpolationmode  none
attr source  rcvdPk
attr title  "packets received, vector(packetBytes)"
vector 1304  CAIN.eNodeB.sctp  "Number of Gap Blocks in Last SACK of Association 6"  ETV
vector 849  CAIN.eNodeB.sctp  "Number of Revokable Gap Blocks in SACK 3"  ETV
vector 850  CAIN.eNodeB.sctp  "Number of Non-Revokable Gap Blocks in SACK 3"  ETV
vector 1185  CAIN.eNodeB.sctp  "TSN Acked CumAck 6:10.0.5.2"  ETV
vector 1151  CAIN.eNodeB.sctp  "Number of Gap Acked Chunks in Last SACK 6:10.0.3.2"  ETV
vector 1152  CAIN.eNodeB.sctp  "Number of Non-Revokable Gap Acked Chunks in Last SACK 6:10.0.3.2"  ETV
vector 1153  CAIN.eNodeB.sctp  "Number of Gap Missed Chunks in Last SACK 6:10.0.3.2"  ETV
vector 1124  CAIN.eNodeB.sctp  "Number of Gap Acked Chunks in Last SACK 6:10.0.4.2"  ETV
vector 1125  CAIN.eNodeB.sctp  "Number of Non-Revokable Gap Acked Chunks in Last SACK 6:10.0.4.2"  ETV
vector 1126  CAIN.eNodeB.sctp  "Number of Gap Missed Chunks in Last SACK 6:10.0.4.2"  ETV
vector 1178  CAIN.eNodeB.sctp  "Number of Gap Acked Chunks in Last SACK 6:10.0.5.2"  ETV
vector 1179  CAIN.eNodeB.sctp  "Number of Non-Revokable Gap Acked Chunks in Last SACK 6:10.0.5.2"  ETV
vector 1180  CAIN.eNodeB.sctp  "Number of Gap Missed Chunks in Last SACK 6:10.0.5.2"  ETV
vector 859  CAIN.eNodeB.sctp  "Arwnd in Last SACK 3"  ETV
vector 1187  CAIN.eNodeB.sctp  "TSN PseudoCumAck 6:10.0.5.2"  ETV
vector 1188  CAIN.eNodeB.sctp  "TSN RTXPseudoCumAck 6:10.0.5.2"  ETV
vector 1181  CAIN.eNodeB.sctp  "Partial Bytes Acked 6:10.0.5.2"  ETV
vector 1333  CAIN.ueD2DTx[12].tcp  tcpRcvQueueBytes  ETV
vector 1320  CAIN.ueD2DTx[12].tcp  "advertised window"  ETV
vector 1319  CAIN.ueD2DTx[12].tcp  "receive window"  ETV
vector 1322  CAIN.ueD2DTx[12].tcp  "sent ack"  ETV
vector 589  CAIN.ueD2DTx[12].nic.pdcpRrc  receivedPacketFromUpperLayer:vector(packetBytes)  ETV
attr interpolationmode  none
attr source  receivedPacketFromUpperLayer
vector 592  CAIN.ueD2DTx[12].nic.pdcpRrc  sentPacketToLowerLayer:vector(packetBytes)  ETV
attr interpolationmode  none
attr source  sentPacketToLowerLayer
vector 593  CAIN.ueD2DTx[12].nic.mac  receivedPacketFromUpperLayer:vector(packetBytes)  ETV
attr interpolationmode  none
attr source  receivedPacketFromUpperLayer
vector 603  CAIN.ueD2DTx[12].nic.mac  CainHopMessageSent:vector  ETV
attr interpolationmode  none
attr title  "# of Sent CAIN hop message, vector"
vector 596  CAIN.ueD2DTx[12].nic.mac  sentPacketToLowerLayer:vector(packetBytes)  ETV
attr interpolationmode  none
attr source  sentPacketToLowerLayer
vector 786  CAIN.ueD2DTx[18].nic.mac  receivedPacketFromLowerLayer:vector(packetBytes)  ETV
attr interpolationmode  none
attr source  receivedPacketFromLowerLayer
vector 788  CAIN.ueD2DTx[18].nic.mac  sentPacketToLowerLayer:vector(packetBytes)  ETV
attr interpolationmode  none
attr source  sentPacketToLowerLayer
vector 530  CAIN.ueD2DTx[10].nic.mac  receivedPacketFromLowerLayer:vector(packetBytes)  ETV
attr interpolationmode  none
attr source  receivedPacketFromLowerLayer
vector 532  CAIN.ueD2DTx[10].nic.mac  sentPacketToLowerLayer:vector(packetBytes)  ETV
attr interpolationmode  none
attr source  sentPacketToLowerLayer
vector 1357  CAIN.ueD2DTx[10].tcp  tcpRcvQueueBytes  ETV
vector 1344  CAIN.ueD2DTx[10].tcp  "advertised window"  ETV
vector 1343  CAIN.ueD2DTx[10].tcp  "receive window"  ETV
vector 1346  CAIN.ueD2DTx[10].tcp  "sent ack"  ETV
vector 525  CAIN.ueD2DTx[10].nic.pdcpRrc  receivedPacketFromUpperLayer:vector(packetBytes)  ETV
attr interpolationmode  none
attr source  receivedPacketFromUpperLayer
vector 528  CAIN.ueD2DTx[10].nic.pdcpRrc  sentPacketToLowerLayer:vector(packetBytes)  ETV
attr interpolationmode  none
attr source  sentPacketToLowerLayer
vector 529  CAIN.ueD2DTx[10].nic.mac  receivedPacketFromUpperLayer:vector(packetBytes)  ETV
attr interpolationmode  none
attr source  receivedPacketFromUpperLayer
vector 111  CAIN.eNodeB.nic.mac  racpkt:vector  ETV
attr interpolationmode  none
attr title  "eNB received racpkt message, vector"
vector 112  CAIN.eNodeB.nic.mac  racDistanceSignal:vector  ETV
attr interpolationmode  none
attr title  "Rac distance to enb, vector"
vector 113  CAIN.eNodeB.nic.mac  racServedDevsSignal:vector  ETV
attr interpolationmode  none
attr title  "# of devices served on rac arriavall, vector"
vector 106  CAIN.eNodeB.nic.mac  DistanceSignal:vector  ETV
attr interpolationmode  none
attr title  "Distance to enb, vector"
vector 101  CAIN.eNodeB.nic.mac  CainHopMessage:vector  ETV
attr interpolationmode  none
attr title  "eNB received CAIN hop message, vector"
vector 98  CAIN.eNodeB.nic.mac  sentPacketToLowerLayer:vector(packetBytes)  ETV
attr interpolationmode  none
attr source  sentPacketToLowerLayer
vector 537  CAIN.ueD2DTx[10].nic.mac  DropedHopMessage:vector  ETV
attr interpolationmode  none
attr title  "Droped Hop CAIN message due to RB not available, vector"
vector 1381  CAIN.ueD2DTx[3].tcp  tcpRcvQueueBytes  ETV
vector 1368  CAIN.ueD2DTx[3].tcp  "advertised window"  ETV
vector 1367  CAIN.ueD2DTx[3].tcp  "receive window"  ETV
vector 1370  CAIN.ueD2DTx[3].tcp  "sent ack"  ETV
vector 301  CAIN.ueD2DTx[3].nic.pdcpRrc  receivedPacketFromUpperLayer:vector(packetBytes)  ETV
attr interpolationmode  none
attr source  receivedPacketFromUpperLayer
vector 304  CAIN.ueD2DTx[3].nic.pdcpRrc  sentPacketToLowerLayer:vector(packetBytes)  ETV
attr interpolationmode  none
attr source  sentPacketToLowerLayer
vector 305  CAIN.ueD2DTx[3].nic.mac  receivedPacketFromUpperLayer:vector(packetBytes)  ETV
attr interpolationmode  none
attr source  receivedPacketFromUpperLayer
vector 315  CAIN.ueD2DTx[3].nic.mac  CainHopMessageSent:vector  ETV
attr interpolationmode  none
attr title  "# of Sent CAIN hop message, vector"
vector 308  CAIN.ueD2DTx[3].nic.mac  sentPacketToLowerLayer:vector(packetBytes)  ETV
attr interpolationmode  none
attr source  sentPacketToLowerLayer
vector 531  CAIN.ueD2DTx[10].nic.mac  sentPacketToUpperLayer:vector(packetBytes)  ETV
attr interpolationmode  none
attr source  sentPacketToUpperLayer
vector 115  CAIN.eNodeB.nic.phy  averageCqiUlvect:vector  ETV
attr source  averageCqiUlvect
attr title  "Average Cqi reported in UL, vector"
attr unit  cqi
vector 1405  CAIN.ueD2DTx[19].tcp  tcpRcvQueueBytes  ETV
vector 1392  CAIN.ueD2DTx[19].tcp  "advertised window"  ETV
vector 1391  CAIN.ueD2DTx[19].tcp  "receive window"  ETV
vector 1394  CAIN.ueD2DTx[19].tcp  "sent ack"  ETV
vector 813  CAIN.ueD2DTx[19].nic.pdcpRrc  receivedPacketFromUpperLayer:vector(packetBytes)  ETV
attr interpolationmode  none
attr source  receivedPacketFromUpperLayer
vector 816  CAIN.ueD2DTx[19].nic.pdcpRrc  sentPacketToLowerLayer:vector(packetBytes)  ETV
attr interpolationmode  none
attr source  sentPacketToLowerLayer
vector 817  CAIN.ueD2DTx[19].nic.mac  receivedPacketFromUpperLayer:vector(packetBytes)  ETV
attr interpolationmode  none
attr source  receivedPacketFromUpperLayer
vector 820  CAIN.ueD2DTx[19].nic.mac  sentPacketToLowerLayer:vector(packetBytes)  ETV
attr interpolationmode  none
attr source  sentPacketToLowerLayer
vector 109  CAIN.eNodeB.nic.mac  ServedHopDevs:vector  ETV
attr interpolationmode  none
attr title  "# of devices served on hop forwarding, vector"
vector 97  CAIN.eNodeB.nic.mac  sentPacketToUpperLayer:vector(packetBytes)  ETV
attr interpolationmode  none
attr source  sentPacketToUpperLayer
vector 99  CAIN.eNodeB.nic.mac  measuredItbs:vector  ETV
attr source  measuredItbs
attr title  "TBS index, vector"
attr unit  ""
vector 498  CAIN.ueD2DTx[9].nic.mac  receivedPacketFromLowerLayer:vector(packetBytes)  ETV
attr interpolationmode  none
attr source  receivedPacketFromLowerLayer
vector 500  CAIN.ueD2DTx[9].nic.mac  sentPacketToLowerLayer:vector(packetBytes)  ETV
attr interpolationmode  none
attr source  sentPacketToLowerLayer
vector 818  CAIN.ueD2DTx[19].nic.mac  receivedPacketFromLowerLayer:vector(packetBytes)  ETV
attr interpolationmode  none
attr source  receivedPacketFromLowerLayer
vector 562  CAIN.ueD2DTx[11].nic.mac  receivedPacketFromLowerLayer:vector(packetBytes)  ETV
attr interpolationmode  none
attr source  receivedPacketFromLowerLayer
vector 564  CAIN.ueD2DTx[11].nic.mac  sentPacketToLowerLayer:vector(packetBytes)  ETV
attr interpolationmode  none
attr source  sentPacketToLowerLayer
vector 1429  CAIN.ueD2DTx[16].tcp  tcpRcvQueueBytes  ETV
vector 1416  CAIN.ueD2DTx[16].tcp  "advertised window"  ETV
vector 1415  CAIN.ueD2DTx[16].tcp  "receive window"  ETV
vector 1418  CAIN.ueD2DTx[16].tcp  "sent ack"  ETV
vector 717  CAIN.ueD2DTx[16].nic.pdcpRrc  receivedPacketFromUpperLayer:vector(packetBytes)  ETV
attr interpolationmode  none
attr source  receivedPacketFromUpperLayer
vector 720  CAIN.ueD2DTx[16].nic.pdcpRrc  sentPacketToLowerLayer:vector(packetBytes)  ETV
attr interpolationmode  none
attr source  sentPacketToLowerLayer
vector 721  CAIN.ueD2DTx[16].nic.mac  receivedPacketFromUpperLayer:vector(packetBytes)  ETV
attr interpolationmode  none
attr source  receivedPacketFromUpperLayer
vector 731  CAIN.ueD2DTx[16].nic.mac  CainHopMessageSent:vector  ETV
attr interpolationmode  none
attr title  "# of Sent CAIN hop message, vector"
vector 724  CAIN.ueD2DTx[16].nic.mac  sentPacketToLowerLayer:vector(packetBytes)  ETV
attr interpolationmode  none
attr source  sentPacketToLowerLayer
vector 819  CAIN.ueD2DTx[19].nic.mac  sentPacketToUpperLayer:vector(packetBytes)  ETV
attr interpolationmode  none
attr source  sentPacketToUpperLayer
vector 569  CAIN.ueD2DTx[11].nic.mac  DropedHopMessage:vector  ETV
attr interpolationmode  none
attr title  "Droped Hop CAIN message due to RB not available, vector"
vector 690  CAIN.ueD2DTx[15].nic.mac  receivedPacketFromLowerLayer:vector(packetBytes)  ETV
attr interpolationmode  none
attr source  receivedPacketFromLowerLayer
vector 692  CAIN.ueD2DTx[15].nic.mac  sentPacketToLowerLayer:vector(packetBytes)  ETV
attr interpolationmode  none
attr source  sentPacketToLowerLayer
vector 92  CAIN.eNodeB.nic.pdcpRrc  receivedPacketFromLowerLayer:vector(packetBytes)  ETV
attr interpolationmode  none
attr source  receivedPacketFromLowerLayer
vector 93  CAIN.eNodeB.nic.pdcpRrc  sentPacketToUpperLayer:vector(packetBytes)  ETV
attr interpolationmode  none
attr source  sentPacketToUpperLayer
vector 86  CAIN.eNodeB.udp  sentPk:vector(packetBytes)  ETV
attr interpolationmode  none
attr source  sentPk
attr title  "packets sent, vector(packetBytes)"
vector 697  CAIN.ueD2DTx[15].nic.mac  DropedHopMessage:vector  ETV
attr interpolationmode  none
attr title  "Droped Hop CAIN message due to RB not available, vector"
vector 145  CAIN.eNodeB1.udp  rcvdPk:vector(packetBytes)  ETV
attr interpolationmode  none
attr source  rcvdPk
attr title  "packets received, vector(packetBytes)"
vector 146  CAIN.eNodeB1.udp  passedUpPk:vector(count)  ETV
attr interpolationmode  none
attr title  "packets passed up, vector(count)"
vector 1453  CAIN.ueD2DTx[5].tcp  tcpRcvQueueBytes  ETV
vector 1440  CAIN.ueD2DTx[5].tcp  "advertised window"  ETV
vector 1439  CAIN.ueD2DTx[5].tcp  "receive window"  ETV
vector 1442  CAIN.ueD2DTx[5].tcp  "sent ack"  ETV
vector 365  CAIN.ueD2DTx[5].nic.pdcpRrc  receivedPacketFromUpperLayer:vector(packetBytes)  ETV
attr interpolationmode  none
attr source  receivedPacketFromUpperLayer
vector 368  CAIN.ueD2DTx[5].nic.pdcpRrc  sentPacketToLowerLayer:vector(packetBytes)  ETV
attr interpolationmode  none
attr source  sentPacketToLowerLayer
vector 369  CAIN.ueD2DTx[5].nic.mac  receivedPacketFromUpperLayer:vector(packetBytes)  ETV
attr interpolationmode  none
attr source  receivedPacketFromUpperLayer
vector 379  CAIN.ueD2DTx[5].nic.mac  CainHopMessageSent:vector  ETV
attr interpolationmode  none
attr title  "# of Sent CAIN hop message, vector"
vector 372  CAIN.ueD2DTx[5].nic.mac  sentPacketToLowerLayer:vector(packetBytes)  ETV
attr interpolationmode  none
attr source  sentPacketToLowerLayer
vector 1477  CAIN.ueD2DTx[13].tcp  tcpRcvQueueBytes  ETV
vector 1464  CAIN.ueD2DTx[13].tcp  "advertised window"  ETV
vector 1463  CAIN.ueD2DTx[13].tcp  "receive window"  ETV
vector 1466  CAIN.ueD2DTx[13].tcp  "sent ack"  ETV
vector 621  CAIN.ueD2DTx[13].nic.pdcpRrc  receivedPacketFromUpperLayer:vector(packetBytes)  ETV
attr interpolationmode  none
attr source  receivedPacketFromUpperLayer
vector 624  CAIN.ueD2DTx[13].nic.pdcpRrc  sentPacketToLowerLayer:vector(packetBytes)  ETV
attr interpolationmode  none
attr source  sentPacketToLowerLayer
vector 625  CAIN.ueD2DTx[13].nic.mac  receivedPacketFromUpperLayer:vector(packetBytes)  ETV
attr interpolationmode  none
attr source  receivedPacketFromUpperLayer
vector 635  CAIN.ueD2DTx[13].nic.mac  CainHopMessageSent:vector  ETV
attr interpolationmode  none
attr title  "# of Sent CAIN hop message, vector"
vector 628  CAIN.ueD2DTx[13].nic.mac  sentPacketToLowerLayer:vector(packetBytes)  ETV
attr interpolationmode  none
attr source  sentPacketToLowerLayer
vector 1501  CAIN.ueD2DTx[11].tcp  tcpRcvQueueBytes  ETV
vector 1488  CAIN.ueD2DTx[11].tcp  "advertised window"  ETV
vector 1487  CAIN.ueD2DTx[11].tcp  "receive window"  ETV
vector 1490  CAIN.ueD2DTx[11].tcp  "sent ack"  ETV
vector 557  CAIN.ueD2DTx[11].nic.pdcpRrc  receivedPacketFromUpperLayer:vector(packetBytes)  ETV
attr interpolationmode  none
attr source  receivedPacketFromUpperLayer
vector 560  CAIN.ueD2DTx[11].nic.pdcpRrc  sentPacketToLowerLayer:vector(packetBytes)  ETV
attr interpolationmode  none
attr source  sentPacketToLowerLayer
vector 561  CAIN.ueD2DTx[11].nic.mac  receivedPacketFromUpperLayer:vector(packetBytes)  ETV
attr interpolationmode  none
attr source  receivedPacketFromUpperLayer
vector 1525  CAIN.ueD2DTx[8].tcp  tcpRcvQueueBytes  ETV
vector 1512  CAIN.ueD2DTx[8].tcp  "advertised window"  ETV
vector 1511  CAIN.ueD2DTx[8].tcp  "receive window"  ETV
vector 1514  CAIN.ueD2DTx[8].tcp  "sent ack"  ETV
vector 461  CAIN.ueD2DTx[8].nic.pdcpRrc  receivedPacketFromUpperLayer:vector(packetBytes)  ETV
attr interpolationmode  none
attr source  receivedPacketFromUpperLayer
vector 464  CAIN.ueD2DTx[8].nic.pdcpRrc  sentPacketToLowerLayer:vector(packetBytes)  ETV
attr interpolationmode  none
attr source  sentPacketToLowerLayer
vector 465  CAIN.ueD2DTx[8].nic.mac  receivedPacketFromUpperLayer:vector(packetBytes)  ETV
attr interpolationmode  none
attr source  receivedPacketFromUpperLayer
vector 468  CAIN.ueD2DTx[8].nic.mac  sentPacketToLowerLayer:vector(packetBytes)  ETV
attr interpolationmode  none
attr source  sentPacketToLowerLayer
vector 1549  CAIN.ueD2DTx[14].tcp  tcpRcvQueueBytes  ETV
vector 1536  CAIN.ueD2DTx[14].tcp  "advertised window"  ETV
vector 1535  CAIN.ueD2DTx[14].tcp  "receive window"  ETV
vector 1538  CAIN.ueD2DTx[14].tcp  "sent ack"  ETV
vector 653  CAIN.ueD2DTx[14].nic.pdcpRrc  receivedPacketFromUpperLayer:vector(packetBytes)  ETV
attr interpolationmode  none
attr source  receivedPacketFromUpperLayer
vector 656  CAIN.ueD2DTx[14].nic.pdcpRrc  sentPacketToLowerLayer:vector(packetBytes)  ETV
attr interpolationmode  none
attr source  sentPacketToLowerLayer
vector 657  CAIN.ueD2DTx[14].nic.mac  receivedPacketFromUpperLayer:vector(packetBytes)  ETV
attr interpolationmode  none
attr source  receivedPacketFromUpperLayer
vector 667  CAIN.ueD2DTx[14].nic.mac  CainHopMessageSent:vector  ETV
attr interpolationmode  none
attr title  "# of Sent CAIN hop message, vector"
vector 660  CAIN.ueD2DTx[14].nic.mac  sentPacketToLowerLayer:vector(packetBytes)  ETV
attr interpolationmode  none
attr source  sentPacketToLowerLayer
vector 466  CAIN.ueD2DTx[8].nic.mac  receivedPacketFromLowerLayer:vector(packetBytes)  ETV
attr interpolationmode  none
attr source  receivedPacketFromLowerLayer
vector 149  CAIN.eNodeB1.nic.pdcpRrc  receivedPacketFromUpperLayer:vector(packetBytes)  ETV
attr interpolationmode  none
attr source  receivedPacketFromUpperLayer
vector 152  CAIN.eNodeB1.nic.pdcpRrc  sentPacketToLowerLayer:vector(packetBytes)  ETV
attr interpolationmode  none
attr source  sentPacketToLowerLayer
vector 1301  CAIN.eNodeB1.sctp  "SendQueue of Association 5"  ETV
vector 1065  CAIN.eNodeB1.sctp  "TSN Sent 5:10.0.5.1"  ETV
vector 1072  CAIN.eNodeB1.sctp  "Outstanding Bytes 5:10.0.5.1"  ETV
vector 870  CAIN.eNodeB1.sctp  "Outstanding Bytes 4:Total"  ETV
vector 1071  CAIN.eNodeB1.sctp  "Queued Sent Bytes 5:10.0.5.1"  ETV
vector 869  CAIN.eNodeB1.sctp  "Queued Sent Bytes 4:Total"  ETV
vector 153  CAIN.eNodeB1.nic.mac  receivedPacketFromUpperLayer:vector(packetBytes)  ETV
attr interpolationmode  none
attr source  receivedPacketFromUpperLayer
vector 914  CAIN.eNodeB.sctp  "TSN Received 1:10.0.5.2"  ETV
vector 890  CAIN.eNodeB.sctp  "Queued Received Bytes 1:Total"  ETV
vector 886  CAIN.eNodeB.sctp  "Advertised Receiver Window 1"  ETV
vector 895  CAIN.eNodeB.sctp  "Number of Total Gap Blocks Stored 1"  ETV
vector 896  CAIN.eNodeB.sctp  "Number of Revokable Gap Blocks Stored 1"  ETV
vector 897  CAIN.eNodeB.sctp  "Number of Non-Revokable Gap Blocks Stored 1"  ETV
vector 898  CAIN.eNodeB.sctp  "Number of Duplicate TSNs Stored 1"  ETV
vector 902  CAIN.eNodeB.sctp  "Length of SACK Sent 1"  ETV
vector 899  CAIN.eNodeB.sctp  "Number of Revokable Gap Blocks Sent 1"  ETV
vector 900  CAIN.eNodeB.sctp  "Number of Non-Revokable Gap Blocks Sent 1"  ETV
vector 901  CAIN.eNodeB.sctp  "Number of Duplicate TSNs Sent 1"  ETV
vector 906  CAIN.eNodeB.sctp  "End to End Delay of Association 1"  ETV
vector 141  CAIN.eNodeB.x2App[0].client  rcvdPk:vector(packetBytes)  ETV
attr interpolationmode  none
attr source  rcvdPk
attr title  "packets received, vector(packetBytes)"
vector 1300  CAIN.eNodeB1.sctp  "Number of Gap Blocks in Last SACK of Association 5"  ETV
vector 871  CAIN.eNodeB1.sctp  "Number of Revokable Gap Blocks in SACK 4"  ETV
vector 872  CAIN.eNodeB1.sctp  "Number of Non-Revokable Gap Blocks in SACK 4"  ETV
vector 1082  CAIN.eNodeB1.sctp  "TSN Acked CumAck 5:10.0.5.1"  ETV
vector 1048  CAIN.eNodeB1.sctp  "Number of Gap Acked Chunks in Last SACK 5:10.0.2.2"  ETV
vector 1049  CAIN.eNodeB1.sctp  "Number of Non-Revokable Gap Acked Chunks in Last SACK 5:10.0.2.2"  ETV
vector 1050  CAIN.eNodeB1.sctp  "Number of Gap Missed Chunks in Last SACK 5:10.0.2.2"  ETV
vector 1021  CAIN.eNodeB1.sctp  "Number of Gap Acked Chunks in Last SACK 5:10.0.4.1"  ETV
vector 1022  CAIN.eNodeB1.sctp  "Number of Non-Revokable Gap Acked Chunks in Last SACK 5:10.0.4.1"  ETV
vector 1023  CAIN.eNodeB1.sctp  "Number of Gap Missed Chunks in Last SACK 5:10.0.4.1"  ETV
vector 1075  CAIN.eNodeB1.sctp  "Number of Gap Acked Chunks in Last SACK 5:10.0.5.1"  ETV
vector 1076  CAIN.eNodeB1.sctp  "Number of Non-Revokable Gap Acked Chunks in Last SACK 5:10.0.5.1"  ETV
vector 1077  CAIN.eNodeB1.sctp  "Number of Gap Missed Chunks in Last SACK 5:10.0.5.1"  ETV
vector 881  CAIN.eNodeB1.sctp  "Arwnd in Last SACK 4"  ETV
vector 1084  CAIN.eNodeB1.sctp  "TSN PseudoCumAck 5:10.0.5.1"  ETV
vector 1085  CAIN.eNodeB1.sctp  "TSN RTXPseudoCumAck 5:10.0.5.1"  ETV
vector 1078  CAIN.eNodeB1.sctp  "Partial Bytes Acked 5:10.0.5.1"  ETV
vector 467  CAIN.ueD2DTx[8].nic.mac  sentPacketToUpperLayer:vector(packetBytes)  ETV
attr interpolationmode  none
attr source  sentPacketToUpperLayer
vector 1573  CAIN.ueD2DTx[7].tcp  tcpRcvQueueBytes  ETV
vector 1560  CAIN.ueD2DTx[7].tcp  "advertised window"  ETV
vector 1559  CAIN.ueD2DTx[7].tcp  "receive window"  ETV
vector 1562  CAIN.ueD2DTx[7].tcp  "sent ack"  ETV
vector 429  CAIN.ueD2DTx[7].nic.pdcpRrc  receivedPacketFromUpperLayer:vector(packetBytes)  ETV
attr interpolationmode  none
attr source  receivedPacketFromUpperLayer
vector 432  CAIN.ueD2DTx[7].nic.pdcpRrc  sentPacketToLowerLayer:vector(packetBytes)  ETV
attr interpolationmode  none
attr source  sentPacketToLowerLayer
vector 433  CAIN.ueD2DTx[7].nic.mac  receivedPacketFromUpperLayer:vector(packetBytes)  ETV
attr interpolationmode  none
attr source  receivedPacketFromUpperLayer
vector 442  CAIN.ueD2DTx[7].nic.mac  CainMessageSent:vector  ETV
attr interpolationmode  none
attr title  "# of Sent CAIN message, vector"
vector 436  CAIN.ueD2DTx[7].nic.mac  sentPacketToLowerLayer:vector(packetBytes)  ETV
attr interpolationmode  none
attr source  sentPacketToLowerLayer
vector 1597  CAIN.ueD2DTx[2].tcp  tcpRcvQueueBytes  ETV
vector 1584  CAIN.ueD2DTx[2].tcp  "advertised window"  ETV
vector 1583  CAIN.ueD2DTx[2].tcp  "receive window"  ETV
vector 1586  CAIN.ueD2DTx[2].tcp  "sent ack"  ETV
vector 269  CAIN.ueD2DTx[2].nic.pdcpRrc  receivedPacketFromUpperLayer:vector(packetBytes)  ETV
attr interpolationmode  none
attr source  receivedPacketFromUpperLayer
vector 272  CAIN.ueD2DTx[2].nic.pdcpRrc  sentPacketToLowerLayer:vector(packetBytes)  ETV
attr interpolationmode  none
attr source  sentPacketToLowerLayer
vector 273  CAIN.ueD2DTx[2].nic.mac  receivedPacketFromUpperLayer:vector(packetBytes)  ETV
attr interpolationmode  none
attr source  receivedPacketFromUpperLayer
vector 276  CAIN.ueD2DTx[2].nic.mac  sentPacketToLowerLayer:vector(packetBytes)  ETV
attr interpolationmode  none
attr source  sentPacketToLowerLayer
vector 154  CAIN.eNodeB1.nic.mac  receivedPacketFromLowerLayer:vector(packetBytes)  ETV
attr interpolationmode  none
attr source  receivedPacketFromLowerLayer
vector 274  CAIN.ueD2DTx[2].nic.mac  receivedPacketFromLowerLayer:vector(packetBytes)  ETV
attr interpolationmode  none
attr source  receivedPacketFromLowerLayer
vector 275  CAIN.ueD2DTx[2].nic.mac  sentPacketToUpperLayer:vector(packetBytes)  ETV
attr interpolationmode  none
attr source  sentPacketToUpperLayer
vector 1621  CAIN.ueD2DTx[1].tcp  tcpRcvQueueBytes  ETV
vector 1608  CAIN.ueD2DTx[1].tcp  "advertised window"  ETV
vector 1607  CAIN.ueD2DTx[1].tcp  "receive window"  ETV
vector 1610  CAIN.ueD2DTx[1].tcp  "sent ack"  ETV
vector 237  CAIN.ueD2DTx[1].nic.pdcpRrc  receivedPacketFromUpperLayer:vector(packetBytes)  ETV
attr interpolationmode  none
attr source  receivedPacketFromUpperLayer
vector 240  CAIN.ueD2DTx[1].nic.pdcpRrc  sentPacketToLowerLayer:vector(packetBytes)  ETV
attr interpolationmode  none
attr source  sentPacketToLowerLayer
vector 241  CAIN.ueD2DTx[1].nic.mac  receivedPacketFromUpperLayer:vector(packetBytes)  ETV
attr interpolationmode  none
attr source  receivedPacketFromUpperLayer
vector 251  CAIN.ueD2DTx[1].nic.mac  CainHopMessageSent:vector  ETV
attr interpolationmode  none
attr title  "# of Sent CAIN hop message, vector"
vector 244  CAIN.ueD2DTx[1].nic.mac  sentPacketToLowerLayer:vector(packetBytes)  ETV
attr interpolationmode  none
attr source  sentPacketToLowerLayer
vector 117  CAIN.eNodeB.pppIf.queue  rcvdPk:vector(packetBytes)  ETV
attr interpolationmode  none
attr title  "received packets, vector(packetBytes)"
vector 119  CAIN.eNodeB.pppIf.queue  queueingTime:vector  ETV
attr interpolationmode  none
attr title  "queueing time, vector"
vector 126  CAIN.eNodeB.pppIf.ppp  rcvdPkFromHL:vector(packetBytes)  ETV
attr interpolationmode  none
attr source  packetReceivedFromUpper
attr title  "packets received from higher layer, vector(packetBytes)"
vector 122  CAIN.eNodeB.pppIf.ppp  txPk:vector(packetBytes)  ETV
attr interpolationmode  none
attr source  packetSentToLower
attr title  "packets transmitted, vector(packetBytes)"
vector 59  CAIN.pgw.ppp[0].ppp  rxPkOk:vector(packetBytes)  ETV
attr interpolationmode  none
attr source  rxPkOk
attr title  "packets received OK, vector(packetBytes)"
vector 63  CAIN.pgw.ppp[0].ppp  passedUpPk:vector(packetBytes)  ETV
attr interpolationmode  none
attr source  packetSentToUpper
attr title  "packets passed to higher layer, vector(packetBytes)"
vector 44  CAIN.pgw.udp  rcvdPk:vector(packetBytes)  ETV
attr interpolationmode  none
attr source  rcvdPk
attr title  "packets received, vector(packetBytes)"
vector 45  CAIN.pgw.udp  passedUpPk:vector(count)  ETV
attr interpolationmode  none
attr title  "packets passed up, vector(count)"
vector 43  CAIN.pgw.udp  sentPk:vector(packetBytes)  ETV
attr interpolationmode  none
attr source  sentPk
attr title  "packets sent, vector(packetBytes)"
vector 64  CAIN.pgw.ppp[1].queue  rcvdPk:vector(packetBytes)  ETV
attr interpolationmode  none
attr title  "received packets, vector(packetBytes)"
vector 66  CAIN.pgw.ppp[1].queue  queueingTime:vector  ETV
attr interpolationmode  none
attr title  "queueing time, vector"
vector 73  CAIN.pgw.ppp[1].ppp  rcvdPkFromHL:vector(packetBytes)  ETV
attr interpolationmode  none
attr source  packetReceivedFromUpper
attr title  "packets received from higher layer, vector(packetBytes)"
vector 69  CAIN.pgw.ppp[1].ppp  txPk:vector(packetBytes)  ETV
attr interpolationmode  none
attr source  packetSentToLower
attr title  "packets transmitted, vector(packetBytes)"
vector 181  CAIN.eNodeB1.pppIf.ppp  rxPkOk:vector(packetBytes)  ETV
attr interpolationmode  none
attr source  rxPkOk
attr title  "packets received OK, vector(packetBytes)"
vector 185  CAIN.eNodeB1.pppIf.ppp  passedUpPk:vector(packetBytes)  ETV
attr interpolationmode  none
attr source  packetSentToUpper
attr title  "packets passed to higher layer, vector(packetBytes)"
vector 1645  CAIN.ueD2DTx[17].tcp  tcpRcvQueueBytes  ETV
vector 1632  CAIN.ueD2DTx[17].tcp  "advertised window"  ETV
vector 1631  CAIN.ueD2DTx[17].tcp  "receive window"  ETV
vector 1634  CAIN.ueD2DTx[17].tcp  "sent ack"  ETV
vector 749  CAIN.ueD2DTx[17].nic.pdcpRrc  receivedPacketFromUpperLayer:vector(packetBytes)  ETV
attr interpolationmode  none
attr source  receivedPacketFromUpperLayer
vector 752  CAIN.ueD2DTx[17].nic.pdcpRrc  sentPacketToLowerLayer:vector(packetBytes)  ETV
attr interpolationmode  none
attr source  sentPacketToLowerLayer
vector 753  CAIN.ueD2DTx[17].nic.mac  receivedPacketFromUpperLayer:vector(packetBytes)  ETV
attr interpolationmode  none
attr source  receivedPacketFromUpperLayer
vector 1669  CAIN.ueD2DTx[6].tcp  tcpRcvQueueBytes  ETV
vector 1656  CAIN.ueD2DTx[6].tcp  "advertised window"  ETV
vector 1655  CAIN.ueD2DTx[6].tcp  "receive window"  ETV
vector 1658  CAIN.ueD2DTx[6].tcp  "sent ack"  ETV
vector 397  CAIN.ueD2DTx[6].nic.pdcpRrc  receivedPacketFromUpperLayer:vector(packetBytes)  ETV
attr interpolationmode  none
attr source  receivedPacketFromUpperLayer
vector 400  CAIN.ueD2DTx[6].nic.pdcpRrc  sentPacketToLowerLayer:vector(packetBytes)  ETV
attr interpolationmode  none
attr source  sentPacketToLowerLayer
vector 401  CAIN.ueD2DTx[6].nic.mac  receivedPacketFromUpperLayer:vector(packetBytes)  ETV
attr interpolationmode  none
attr source  receivedPacketFromUpperLayer
vector 404  CAIN.ueD2DTx[6].nic.mac  sentPacketToLowerLayer:vector(packetBytes)  ETV
attr interpolationmode  none
attr source  sentPacketToLowerLayer
vector 169  CAIN.eNodeB1.nic.mac  racpkt:vector  ETV
attr interpolationmode  none
attr title  "eNB received racpkt message, vector"
vector 170  CAIN.eNodeB1.nic.mac  racDistanceSignal:vector  ETV
attr interpolationmode  none
attr title  "Rac distance to enb, vector"
vector 171  CAIN.eNodeB1.nic.mac  racServedDevsSignal:vector  ETV
attr interpolationmode  none
attr title  "# of devices served on rac arriavall, vector"
vector 156  CAIN.eNodeB1.nic.mac  sentPacketToLowerLayer:vector(packetBytes)  ETV
attr interpolationmode  none
attr source  sentPacketToLowerLayer
vector 402  CAIN.ueD2DTx[6].nic.mac  receivedPacketFromLowerLayer:vector(packetBytes)  ETV
attr interpolationmode  none
attr source  receivedPacketFromLowerLayer
vector 1693  CAIN.ueD2DTx[9].tcp  tcpRcvQueueBytes  ETV
vector 1680  CAIN.ueD2DTx[9].tcp  "advertised window"  ETV
vector 1679  CAIN.ueD2DTx[9].tcp  "receive window"  ETV
vector 1682  CAIN.ueD2DTx[9].tcp  "sent ack"  ETV
vector 493  CAIN.ueD2DTx[9].nic.pdcpRrc  receivedPacketFromUpperLayer:vector(packetBytes)  ETV
attr interpolationmode  none
attr source  receivedPacketFromUpperLayer
vector 496  CAIN.ueD2DTx[9].nic.pdcpRrc  sentPacketToLowerLayer:vector(packetBytes)  ETV
attr interpolationmode  none
attr source  sentPacketToLowerLayer
vector 497  CAIN.ueD2DTx[9].nic.mac  receivedPacketFromUpperLayer:vector(packetBytes)  ETV
attr interpolationmode  none
attr source  receivedPacketFromUpperLayer
vector 1717  CAIN.ueD2DTx[4].tcp  tcpRcvQueueBytes  ETV
vector 1704  CAIN.ueD2DTx[4].tcp  "advertised window"  ETV
vector 1703  CAIN.ueD2DTx[4].tcp  "receive window"  ETV
vector 1706  CAIN.ueD2DTx[4].tcp  "sent ack"  ETV
vector 333  CAIN.ueD2DTx[4].nic.pdcpRrc  receivedPacketFromUpperLayer:vector(packetBytes)  ETV
attr interpolationmode  none
attr source  receivedPacketFromUpperLayer
vector 336  CAIN.ueD2DTx[4].nic.pdcpRrc  sentPacketToLowerLayer:vector(packetBytes)  ETV
attr interpolationmode  none
attr source  sentPacketToLowerLayer
vector 337  CAIN.ueD2DTx[4].nic.mac  receivedPacketFromUpperLayer:vector(packetBytes)  ETV
attr interpolationmode  none
attr source  receivedPacketFromUpperLayer
vector 347  CAIN.ueD2DTx[4].nic.mac  CainHopMessageSent:vector  ETV
attr interpolationmode  none
attr title  "# of Sent CAIN hop message, vector"
vector 340  CAIN.ueD2DTx[4].nic.mac  sentPacketToLowerLayer:vector(packetBytes)  ETV
attr interpolationmode  none
attr source  sentPacketToLowerLayer
vector 1741  CAIN.ueD2DTx[0].tcp  tcpRcvQueueBytes  ETV
vector 1728  CAIN.ueD2DTx[0].tcp  "advertised window"  ETV
vector 1727  CAIN.ueD2DTx[0].tcp  "receive window"  ETV
vector 1730  CAIN.ueD2DTx[0].tcp  "sent ack"  ETV
vector 205  CAIN.ueD2DTx[0].nic.pdcpRrc  receivedPacketFromUpperLayer:vector(packetBytes)  ETV
attr interpolationmode  none
attr source  receivedPacketFromUpperLayer
vector 208  CAIN.ueD2DTx[0].nic.pdcpRrc  sentPacketToLowerLayer:vector(packetBytes)  ETV
attr interpolationmode  none
attr source  sentPacketToLowerLayer
vector 209  CAIN.ueD2DTx[0].nic.mac  receivedPacketFromUpperLayer:vector(packetBytes)  ETV
attr interpolationmode  none
attr source  receivedPacketFromUpperLayer
vector 212  CAIN.ueD2DTx[0].nic.mac  sentPacketToLowerLayer:vector(packetBytes)  ETV
attr interpolationmode  none
attr source  sentPacketToLowerLayer
vector 1765  CAIN.ueD2DTx[15].tcp  tcpRcvQueueBytes  ETV
vector 1752  CAIN.ueD2DTx[15].tcp  "advertised window"  ETV
vector 1751  CAIN.ueD2DTx[15].tcp  "receive window"  ETV
vector 1754  CAIN.ueD2DTx[15].tcp  "sent ack"  ETV
vector 685  CAIN.ueD2DTx[15].nic.pdcpRrc  receivedPacketFromUpperLayer:vector(packetBytes)  ETV
attr interpolationmode  none
attr source  receivedPacketFromUpperLayer
vector 688  CAIN.ueD2DTx[15].nic.pdcpRrc  sentPacketToLowerLayer:vector(packetBytes)  ETV
attr interpolationmode  none
attr source  sentPacketToLowerLayer
vector 689  CAIN.ueD2DTx[15].nic.mac  receivedPacketFromUpperLayer:vector(packetBytes)  ETV
attr interpolationmode  none
attr source  receivedPacketFromUpperLayer
vector 210  CAIN.ueD2DTx[0].nic.mac  receivedPacketFromLowerLayer:vector(packetBytes)  ETV
attr interpolationmode  none
attr source  receivedPacketFromLowerLayer
vector 1789  CAIN.ueD2DTx[18].tcp  tcpRcvQueueBytes  ETV
vector 1776  CAIN.ueD2DTx[18].tcp  "advertised window"  ETV
vector 1775  CAIN.ueD2DTx[18].tcp  "receive window"  ETV
vector 1778  CAIN.ueD2DTx[18].tcp  "sent ack"  ETV
vector 781  CAIN.ueD2DTx[18].nic.pdcpRrc  receivedPacketFromUpperLayer:vector(packetBytes)  ETV
attr interpolationmode  none
attr source  receivedPacketFromUpperLayer
vector 784  CAIN.ueD2DTx[18].nic.pdcpRrc  sentPacketToLowerLayer:vector(packetBytes)  ETV
attr interpolationmode  none
attr source  sentPacketToLowerLayer
vector 785  CAIN.ueD2DTx[18].nic.mac  receivedPacketFromUpperLayer:vector(packetBytes)  ETV
attr interpolationmode  none
attr source  receivedPacketFromUpperLayer
vector 794  CAIN.ueD2DTx[18].nic.mac  CainMessageSent:vector  ETV
attr interpolationmode  none
attr title  "# of Sent CAIN message, vector"
vector 691  CAIN.ueD2DTx[15].nic.mac  sentPacketToUpperLayer:vector(packetBytes)  ETV
attr interpolationmode  none
attr source  sentPacketToUpperLayer
1108	150	0.0000001228	0
1219	235	0.0000006304	65535
1220	235	0.0000006304	8940
1221	235	0.0000006304	0.3725
1217	235	0.0000006304	3
1224	235	0.0000006304	1
1236	163	0.0000003096	0
1192	235	0.0000006304	65535
1193	235	0.0000006304	8940
1194	235	0.0000006304	0.3725
1190	235	0.0000006304	3
1197	235	0.0000006304	1
1209	163	0.0000003096	0
910	235	0.0000006304	65535
911	235	0.0000006304	8940
912	235	0.0000006304	0.3725
908	235	0.0000006304	3
908	302	0.0000008564	1
909	302	0.0000008564	2.26e-07
914	3470	0.0570000972	2000
914	3489	0.0570004484	2001
914	3489	0.0570004484	2002
914	3489	0.0570004484	2003
914	3489	0.0570004484	2004
914	3489	0.0570004484	2005
914	3489	0.0570004484	2006
914	3489	0.0570004484	2007
914	3489	0.0570004484	2008
914	3489	0.0570004484	2009
914	3489	0.0570004484	2010
914	3489	0.0570004484	2011
914	14147	0.2570021596	2012
914	14147	0.2570021596	2013
914	14147	0.2570021596	2014
914	14147	0.2570021596	2015
914	14147	0.2570021596	2016
914	14147	0.2570021596	2017
914	14147	0.2570021596	2018
914	14147	0.2570021596	2019
914	14147	0.2570021596	2020
914	14147	0.2570021596	2021
914	14147	0.2570021596	2022
914	14147	0.2570021596	2023
914	14147	0.2570021596	2024
914	14147	0.2570021596	2025
914	14147	0.2570021596	2026
914	14147	0.2570021596	2027
914	14147	0.2570021596	2028
914	14147	0.2570021596	2029
914	14147	0.2570021596	2030
914	14147	0.2570021596	2031
914	14147	0.2570021596	2032
914	14147	0.2570021596	2033
914	14147	0.2570021596	2034
914	14147	0.2570021596	2035
914	14147	0.2570021596	2036
914	14147	0.2570021596	2037
914	14147	0.2570021596	2038
914	14147	0.2570021596	2039
914	14147	0.2570021596	2040
914	14147	0.2570021596	2041
914	14147	0.2570021596	2042
914	14147	0.2570021596	2043
914	14147	0.2570021596	2044
914	14147	0.2570021596	2045
914	14147	0.2570021596	2046
914	14147	0.2570021596	2047
914	14147	0.2570021596	2048
914	14147	0.2570021596	2049
914	14147	0.2570021596	2050
914	14147	0.2570021596	2051
914	14147	0.2570021596	2052
914	14147	0.2570021596	2053
914	14147	0.2570021596	2054
914	14147	0.2570021596	2055
914	14147	0.2570021596	2056
914	14147	0.2570021596	2057
914	14147	0.2570021596	2058
914	14147	0.2570021596	2059
914	14147	0.2570021596	2060
914	14147	0.2570021596	2061
914	14147	0.2570021596	2062
914	14147	0.2570021596	2063
914	14147	0.2570021596	2064
914	14147	0.2570021596	2065
914	14147	0.2570021596	2066
914	14147	0.2570021596	2067
914	14147	0.2570021596	2068
914	14147	0.2570021596	2069
914	14147	0.2570021596	2070
914	14147	0.2570021596	2071
914	14147	0.2570021596	2072
914	14147	0.2570021596	2073
914	14147	0.2570021596	2074
914	14147	0.2570021596	2075
914	14147	0.2570021596	2076
914	14147	0.2570021596	2077
914	14147	0.2570021596	2078
914	14147	0.2570021596	2079
914	14147	0.2570021596	2080
914	14147	0.2570021596	2081
914	14147	0.2570021596	2082
914	14147	0.2570021596	2083
914	14147	0.2570021596	2084
914	14147	0.2570021596	2085
914	14147	0.2570021596	2086
914	14147	0.2570021596	2087
914	14147	0.2570021596	2088
914	14147	0.2570021596	2089
914	14147	0.2570021596	2090
914	14147	0.2570021596	2091
914	14147	0.2570021596	2092
914	14147	0.2570021596	2093
914	14147	0.2570021596	2094
914	14147	0.2570021596	2095
914	14147	0.2570021596	2096
914	14147	0.2570021596	2097
914	14147	0.2570021596	2098
914	14147	0.2570021596	2099
914	14147	0.2570021596	2100
914	14147	0.2570021596	2101
914	14147	0.2570021596	2102
914	14147	0.2570021596	2103
914	14147	0.2570021596	2104
914	14147	0.2570021596	2105
914	14147	0.2570021596	2106
914	14147	0.2570021596	2107
917	207	0.000000552	1
917	221	0.000000596	2
916	207	0.000000552	1
916	221	0.000000596	2
918	302	0.0000008564	1
918	308	0.0000009004	2
927	131	0	0
886	3470	0.0570000972	65533
886	14133	0.2570004484	65535
886	24132	0.4570021596	65535
890	3470	0.0570000972	2
890	3473	0.0570000972	2
890	3501	0.0570004484	22
890	3502	0.0570004484	0
890	3503	0.0570004484	0
890	3504	0.0570004484	0
890	3505	0.0570004484	0
890	3506	0.0570004484	0
890	3507	0.0570004484	0
890	3508	0.0570004484	0
890	3509	0.0570004484	0
890	3510	0.0570004484	0
890	3511	0.0570004484	0
890	14133	0.2570004484	0
890	14244	0.2570021596	192
890	14245	0.2570021596	0
890	14246	0.2570021596	0
890	14247	0.2570021596	0
890	14248	0.2570021596	0
890	14249	0.2570021596	0
890	14250	0.2570021596	0
890	14251	0.2570021596	0
890	14252	0.2570021596	0
890	14253	0.2570021596	0
890	14254	0.2570021596	0
890	14255	0.2570021596	0
890	14256	0.2570021596	0
890	14257	0.2570021596	0
890	14258	0.2570021596	0
890	14259	0.2570021596	0
890	14260	0.2570021596	0
890	14261	0.2570021596	0
890	14262	0.2570021596	0
890	14263	0.2570021596	0
890	14264	0.2570021596	0
890	14265	0.2570021596	0
890	14266	0.2570021596	0
890	14267	0.2570021596	0
890	14268	0.2570021596	0
890	14269	0.2570021596	0
890	14270	0.2570021596	0
890	14271	0.2570021596	0
890	14272	0.2570021596	0
890	14273	0.2570021596	0
890	14274	0.2570021596	0
890	14275	0.2570021596	0
890	14276	0.2570021596	0
890	14277	0.2570021596	0
890	14278	0.2570021596	0
890	14279	0.2570021596	0
890	14280	0.2570021596	0
890	14281	0.2570021596	0
890	14282	0.2570021596	0
890	14283	0.2570021596	0
890	14284	0.2570021596	0
890	14285	0.2570021596	0
890	14286	0.2570021596	0
890	14287	0.2570021596	0
890	14288	0.2570021596	0
890	14289	0.2570021596	0
890	14290	0.2570021596	0
890	14291	0.2570021596	0
890	14292	0.2570021596	0
890	14293	0.2570021596	0
890	14294	0.2570021596	0
890	14295	0.2570021596	0
890	14296	0.2570021596	0
890	14297	0.2570021596	0
890	14298	0.2570021596	0
890	14299	0.2570021596	0
890	14300	0.2570021596	0
890	14301	0.2570021596	0
890	14302	0.2570021596	0
890	14303	0.2570021596	0
890	14304	0.2570021596	0
890	14305	0.2570021596	0
890	14306	0.2570021596	0
890	14307	0.2570021596	0
890	14308	0.2570021596	0
890	14309	0.2570021596	0
890	14310	0.2570021596	0
890	14311	0.2570021596	0
890	14312	0.2570021596	0
890	14313	0.2570021596	0
890	14314	0.2570021596	0
890	14315	0.2570021596	0
890	14316	0.2570021596	0
890	14317	0.2570021596	0
890	14318	0.2570021596	0
890	14319	0.2570021596	0
890	14320	0.2570021596	0
890	14321	0.2570021596	0
890	14322	0.2570021596	0
890	14323	0.2570021596	0
890	14324	0.2570021596	0
890	14325	0.2570021596	0
890	14326	0.2570021596	0
890	14327	0.2570021596	0
890	14328	0.2570021596	0
890	14329	0.2570021596	0
890	14330	0.2570021596	0
890	14331	0.2570021596	0
890	14332	0.2570021596	0
890	14333	0.2570021596	0
890	14334	0.2570021596	0
890	14335	0.2570021596	0
890	14336	0.2570021596	0
890	14337	0.2570021596	0
890	14338	0.2570021596	0
890	14339	0.2570021596	0
890	24132	0.4570021596	0
895	3470	0.0570000972	0
895	14133	0.2570004484	0
895	24132	0.4570021596	0
896	3470	0.0570000972	0
896	14133	0.2570004484	0
896	24132	0.4570021596	0
897	3470	0.0570000972	0
897	14133	0.2570004484	0
897	24132	0.4570021596	0
898	3470	0.0570000972	0
898	14133	0.2570004484	0
898	24132	0.4570021596	0
899	3470	0.0570000972	0
899	14133	0.2570004484	0
899	24132	0.4570021596	0
900	3470	0.0570000972	0
900	14133	0.2570004484	0
900	24132	0.4570021596	0
901	3470	0.0570000972	0
901	14133	0.2570004484	0
901	24132	0.4570021596	0
902	3470	0.0570000972	16
902	14133	0.2570004484	16
902	24132	0.4570021596	16
904	163	0.0000003096	65535
906	3473	0.0570000972	9.72e-08
906	3501	0.0570004484	2.572e-07
906	3501	0.0570004484	2.572e-07
906	3501	0.0570004484	2.572e-07
906	3501	0.0570004484	2.572e-07
906	3501	0.0570004484	2.572e-07
906	3501	0.0570004484	2.572e-07
906	3501	0.0570004484	2.572e-07
906	3501	0.0570004484	2.572e-07
906	3501	0.0570004484	2.572e-07
906	3501	0.0570004484	2.572e-07
906	3501	0.0570004484	2.572e-07
906	14244	0.2570021596	1.6172e-06
906	14244	0.2570021596	1.6172e-06
906	14244	0.2570021596	1.6172e-06
906	14244	0.2570021596	1.6172e-06
906	14244	0.2570021596	1.6172e-06
906	14244	0.2570021596	1.6172e-06
906	14244	0.2570021596	1.6172e-06
906	14244	0.2570021596	1.6172e-06
906	14244	0.2570021596	1.6172e-06
906	14244	0.2570021596	1.6172e-06
906	14244	0.2570021596	1.6172e-06
906	14244	0.2570021596	1.6172e-06
906	14244	0.2570021596	1.6172e-06
906	14244	0.2570021596	1.6172e-06
906	14244	0.2570021596	1.6172e-06
906	14244	0.2570021596	1.6172e-06
906	14244	0.2570021596	1.6172e-06
906	14244	0.2570021596	1.6172e-06
906	14244	0.2570021596	1.6172e-06
906	14244	0.2570021596	1.6172e-06
906	14244	0.2570021596	1.6172e-06
906	14244	0.2570021596	1.6172e-06
906	14244	0.2570021596	1.6172e-06
906	14244	0.2570021596	1.6172e-06
906	14244	0.2570021596	1.6172e-06
906	14244	0.2570021596	1.6172e-06
906	14244	0.2570021596	1.6172e-06
906	14244	0.2570021596	1.6172e-06
906	14244	0.2570021596	1.6172e-06
906	14244	0.2570021596	1.6172e-06
906	14244	0.2570021596	1.6172e-06
906	14244	0.2570021596	1.6172e-06
906	14244	0.2570021596	1.6172e-06
906	14244	0.2570021596	1.6172e-06
906	14244	0.2570021596	1.6172e-06
906	14244	0.2570021596	1.6172e-06
906	14244	0.2570021596	1.6172e-06
906	14244	0.2570021596	1.6172e-06
906	14244	0.2570021596	1.6172e-06
906	14244	0.2570021596	1.6172e-06
906	14244	0.2570021596	1.6172e-06
906	14244	0.2570021596	1.6172e-06
906	14244	0.2570021596	1.6172e-06
906	14244	0.2570021596	1.6172e-06
906	14244	0.2570021596	1.6172e-06
906	14244	0.2570021596	1.6172e-06
906	14244	0.2570021596	1.6172e-06
906	14244	0.2570021596	1.6172e-06
906	14244	0.2570021596	1.6172e-06
906	14244	0.2570021596	1.6172e-06
906	14244	0.2570021596	1.6172e-06
906	14244	0.2570021596	1.6172e-06
906	14244	0.2570021596	1.6172e-06
906	14244	0.2570021596	1.6172e-06
906	14244	0.2570021596	1.6172e-06
906	14244	0.2570021596	1.6172e-06
906	14244	0.2570021596	1.6172e-06
906	14244	0.2570021596	1.6172e-06
906	14244	0.2570021596	1.6172e-06
906	14244	0.2570021596	1.6172e-06
906	14244	0.2570021596	1.6172e-06
906	14244	0.2570021596	1.6172e-06
906	14244	0.2570021596	1.6172e-06
906	14244	0.2570021596	1.6172e-06
906	14244	0.2570021596	1.6172e-06
906	14244	0.2570021596	1.6172e-06
906	14244	0.2570021596	1.6172e-06
906	14244	0.2570021596	1.6172e-06
906	14244	0.2570021596	1.6172e-06
906	14244	0.2570021596	1.6172e-06
906	14244	0.2570021596	1.6172e-06
906	14244	0.2570021596	1.6172e-06
906	14244	0.2570021596	1.6172e-06
906	14244	0.2570021596	1.6172e-06
906	14244	0.2570021596	1.6172e-06
906	14244	0.2570021596	1.6172e-06
906	14244	0.2570021596	1.6172e-06
906	14244	0.2570021596	1.6172e-06
906	14244	0.2570021596	1.6172e-06
906	14244	0.2570021596	1.6172e-06
906	14244	0.2570021596	1.6172e-06
906	14244	0.2570021596	1.6172e-06
906	14244	0.2570021596	1.6172e-06
906	14244	0.2570021596	1.6172e-06
906	14244	0.2570021596	1.6172e-06
906	14244	0.2570021596	1.6172e-06
906	14244	0.2570021596	1.6172e-06
906	14244	0.2570021596	1.6172e-06
906	14244	0.2570021596	1.6172e-06
906	14244	0.2570021596	1.6172e-06
906	14244	0.2570021596	1.6172e-06
906	14244	0.2570021596	1.6172e-06
906	14244	0.2570021596	1.6172e-06
906	14244	0.2570021596	1.6172e-06
906	14244	0.2570021596	1.6172e-06
906	14244	0.2570021596	1.6172e-06
907	131	0	0
1138	178	0.000000458	65535
1139	178	0.000000458	8940
1140	178	0.000000458	0.3725
1136	178	0.000000458	3
1143	178	0.000000458	1
1151	665	0.0070001912	0
1151	11311	0.2070005424	0
1151	21757	0.4070022536	0
1152	665	0.0070001912	0
1152	11311	0.2070005424	0
1152	21757	0.4070022536	0
1153	665	0.0070001912	0
1153	11311	0.2070005424	0
1153	21757	0.4070022536	0
1155	150	0.0000001228	0
1111	178	0.000000458	65535
1112	178	0.000000458	8940
1113	178	0.000000458	0.3725
1109	178	0.000000458	3
1116	178	0.000000458	1
1124	665	0.0070001912	0
1124	11311	0.2070005424	0
1124	21757	0.4070022536	0
1125	665	0.0070001912	0
1125	11311	0.2070005424	0
1125	21757	0.4070022536	0
1126	665	0.0070001912	0
1126	11311	0.2070005424	0
1126	21757	0.4070022536	0
1128	150	0.0000001228	0
1165	178	0.000000458	65535
1166	178	0.000000458	8940
1167	178	0.000000458	0.3725
1163	178	0.000000458	3
1163	255	0.0000006744	1
1163	665	0.0070001912	1
1163	11311	0.2070005424	1
1163	21757	0.4070022536	1
1164	255	0.0000006744	2.164e-07
1164	665	0.0070001912	1.912e-07
1164	11311	0.2070005424	0.2000003512
1164	21757	0.4070022536	0.2000017112
1168	609	0.007	2000
1168	665	0.0070001912	2001
1168	665	0.0070001912	2002
1168	665	0.0070001912	2003
1168	665	0.0070001912	2004
1168	665	0.0070001912	2005
1168	665	0.0070001912	2006
1168	665	0.0070001912	2007
1168	665	0.0070001912	2008
1168	665	0.0070001912	2009
1168	665	0.0070001912	2010
1168	665	0.0070001912	2011
1168	11311	0.2070005424	2012
1168	11311	0.2070005424	2013
1168	11311	0.2070005424	2014
1168	11311	0.2070005424	2015
1168	11311	0.2070005424	2016
1168	11311	0.2070005424	2017
1168	11311	0.2070005424	2018
1168	11311	0.2070005424	2019
1168	11311	0.2070005424	2020
1168	11311	0.2070005424	2021
1168	11311	0.2070005424	2022
1168	11311	0.2070005424	2023
1168	11311	0.2070005424	2024
1168	11311	0.2070005424	2025
1168	11311	0.2070005424	2026
1168	11311	0.2070005424	2027
1168	11311	0.2070005424	2028
1168	11311	0.2070005424	2029
1168	11311	0.2070005424	2030
1168	11311	0.2070005424	2031
1168	11311	0.2070005424	2032
1168	11311	0.2070005424	2033
1168	11311	0.2070005424	2034
1168	11311	0.2070005424	2035
1168	11311	0.2070005424	2036
1168	11311	0.2070005424	2037
1168	11311	0.2070005424	2038
1168	11311	0.2070005424	2039
1168	11311	0.2070005424	2040
1168	11311	0.2070005424	2041
1168	11311	0.2070005424	2042
1168	11311	0.2070005424	2043
1168	11311	0.2070005424	2044
1168	11311	0.2070005424	2045
1168	11311	0.2070005424	2046
1168	11311	0.2070005424	2047
1168	11311	0.2070005424	2048
1168	11311	0.2070005424	2049
1168	11311	0.2070005424	2050
1168	11311	0.2070005424	2051
1168	11311	0.2070005424	2052
1168	11311	0.2070005424	2053
1168	11311	0.2070005424	2054
1168	11311	0.2070005424	2055
1168	11311	0.2070005424	2056
1168	11311	0.2070005424	2057
1168	11311	0.2070005424	2058
1168	11311	0.2070005424	2059
1168	11311	0.2070005424	2060
1168	11311	0.2070005424	2061
1168	11311	0.2070005424	2062
1168	11311	0.2070005424	2063
1168	11311	0.2070005424	2064
1168	11311	0.2070005424	2065
1168	11311	0.2070005424	2066
1168	11311	0.2070005424	2067
1168	11311	0.2070005424	2068
1168	11311	0.2070005424	2069
1168	11311	0.2070005424	2070
1168	11311	0.2070005424	2071
1168	11311	0.2070005424	2072
1168	11311	0.2070005424	2073
1168	11311	0.2070005424	2074
1168	11311	0.2070005424	2075
1168	11311	0.2070005424	2076
1168	11311	0.2070005424	2077
1168	11311	0.2070005424	2078
1168	11311	0.2070005424	2079
1168	11311	0.2070005424	2080
1168	11311	0.2070005424	2081
1168	11311	0.2070005424	2082
1168	11311	0.2070005424	2083
1168	11311	0.2070005424	2084
1168	11311	0.2070005424	2085
1168	11311	0.2070005424	2086
1168	11311	0.2070005424	2087
1168	11311	0.2070005424	2088
1168	11311	0.2070005424	2089
1168	11311	0.2070005424	2090
1168	11311	0.2070005424	2091
1168	11311	0.2070005424	2092
1168	11311	0.2070005424	2093
1168	11311	0.2070005424	2094
1168	11311	0.2070005424	2095
1168	11311	0.2070005424	2096
1168	11311	0.2070005424	2097
1168	11311	0.2070005424	2098
1168	11311	0.2070005424	2099
1168	11311	0.2070005424	2100
1168	11311	0.2070005424	2101
1168	11311	0.2070005424	2102
1168	11311	0.2070005424	2103
1168	11311	0.2070005424	2104
1168	11311	0.2070005424	2105
1168	11311	0.2070005424	2106
1168	11311	0.2070005424	2107
1172	273	0.0000007624	1
1172	287	0.0000008064	2
1171	273	0.0000007624	1
1171	287	0.0000008064	2
1173	255	0.0000006744	1
1173	265	0.0000007184	2
1174	609	0.007	2
1174	665	0.0070001912	0
1174	665	0.0070001912	2
1174	665	0.0070001912	4
1174	665	0.0070001912	6
1174	665	0.0070001912	8
1174	665	0.0070001912	10
1174	665	0.0070001912	12
1174	665	0.0070001912	14
1174	665	0.0070001912	16
1174	665	0.0070001912	18
1174	665	0.0070001912	20
1174	665	0.0070001912	22
1174	11311	0.2070005424	20
1174	11311	0.2070005424	18
1174	11311	0.2070005424	16
1174	11311	0.2070005424	14
1174	11311	0.2070005424	12
1174	11311	0.2070005424	10
1174	11311	0.2070005424	8
1174	11311	0.2070005424	6
1174	11311	0.2070005424	4
1174	11311	0.2070005424	2
1174	11311	0.2070005424	0
1174	11311	0.2070005424	2
1174	11311	0.2070005424	4
1174	11311	0.2070005424	6
1174	11311	0.2070005424	8
1174	11311	0.2070005424	10
1174	11311	0.2070005424	12
1174	11311	0.2070005424	14
1174	11311	0.2070005424	16
1174	11311	0.2070005424	18
1174	11311	0.2070005424	20
1174	11311	0.2070005424	22
1174	11311	0.2070005424	24
1174	11311	0.2070005424	26
1174	11311	0.2070005424	28
1174	11311	0.2070005424	30
1174	11311	0.2070005424	32
1174	11311	0.2070005424	34
1174	11311	0.2070005424	36
1174	11311	0.2070005424	38
1174	11311	0.2070005424	40
1174	11311	0.2070005424	42
1174	11311	0.2070005424	44
1174	11311	0.2070005424	46
1174	11311	0.2070005424	48
1174	11311	0.2070005424	50
1174	11311	0.2070005424	52
1174	11311	0.2070005424	54
1174	11311	0.2070005424	56
1174	11311	0.2070005424	58
1174	11311	0.2070005424	60
1174	11311	0.2070005424	62
1174	11311	0.2070005424	64
1174	11311	0.2070005424	66
1174	11311	0.2070005424	68
1174	11311	0.2070005424	70
1174	11311	0.2070005424	72
1174	11311	0.2070005424	74
1174	11311	0.2070005424	76
1174	11311	0.2070005424	78
1174	11311	0.2070005424	80
1174	11311	0.2070005424	82
1174	11311	0.2070005424	84
1174	11311	0.2070005424	86
1174	11311	0.2070005424	88
1174	11311	0.2070005424	90
1174	11311	0.2070005424	92
1174	11311	0.2070005424	94
1174	11311	0.2070005424	96
1174	11311	0.2070005424	98
1174	11311	0.2070005424	100
1174	11311	0.2070005424	102
1174	11311	0.2070005424	104
1174	11311	0.2070005424	106
1174	11311	0.2070005424	108
1174	11311	0.2070005424	110
1174	11311	0.2070005424	112
1174	11311	0.2070005424	114
1174	11311	0.2070005424	116
1174	11311	0.2070005424	118
1174	11311	0.2070005424	120
1174	11311	0.2070005424	122
1174	11311	0.2070005424	124
1174	11311	0.2070005424	126
1174	11311	0.2070005424	128
1174	11311	0.2070005424	130
1174	11311	0.2070005424	132
1174	11311	0.2070005424	134
1174	11311	0.2070005424	136
1174	11311	0.2070005424	138
1174	11311	0.2070005424	140
1174	11311	0.2070005424	142
1174	11311	0.2070005424	144
1174	11311	0.2070005424	146
1174	11311	0.2070005424	148
1174	11311	0.2070005424	150
1174	11311	0.2070005424	152
1174	11311	0.2070005424	154
1174	11311	0.2070005424	156
1174	11311	0.2070005424	158
1174	11311	0.2070005424	160
1174	11311	0.2070005424	162
1174	11311	0.2070005424	164
1174	11311	0.2070005424	166
1174	11311	0.2070005424	168
1174	11311	0.2070005424	170
1174	11311	0.2070005424	172
1174	11311	0.2070005424	174
1174	11311	0.2070005424	176
1174	11311	0.2070005424	178
1174	11311	0.2070005424	180
1174	11311	0.2070005424	182
1174	11311	0.2070005424	184
1174	11311	0.2070005424	186
1174	11311	0.2070005424	188
1174	11311	0.2070005424	190
1174	11311	0.2070005424	192
1174	21757	0.4070022536	190
1174	21757	0.4070022536	188
1174	21757	0.4070022536	186
1174	21757	0.4070022536	184
1174	21757	0.4070022536	182
1174	21757	0.4070022536	180
1174	21757	0.4070022536	178
1174	21757	0.4070022536	176
1174	21757	0.4070022536	174
1174	21757	0.4070022536	172
1174	21757	0.4070022536	170
1174	21757	0.4070022536	168
1174	21757	0.4070022536	166
1174	21757	0.4070022536	164
1174	21757	0.4070022536	162
1174	21757	0.4070022536	160
1174	21757	0.4070022536	158
1174	21757	0.4070022536	156
1174	21757	0.4070022536	154
1174	21757	0.4070022536	152
1174	21757	0.4070022536	150
1174	21757	0.4070022536	148
1174	21757	0.4070022536	146
1174	21757	0.4070022536	144
1174	21757	0.4070022536	142
1174	21757	0.4070022536	140
1174	21757	0.4070022536	138
1174	21757	0.4070022536	136
1174	21757	0.4070022536	134
1174	21757	0.4070022536	132
1174	21757	0.4070022536	130
1174	21757	0.4070022536	128
1174	21757	0.4070022536	126
1174	21757	0.4070022536	124
1174	21757	0.4070022536	122
1174	21757	0.4070022536	120
1174	21757	0.4070022536	118
1174	21757	0.4070022536	116
1174	21757	0.4070022536	114
1174	21757	0.4070022536	112
1174	21757	0.4070022536	110
1174	21757	0.4070022536	108
1174	21757	0.4070022536	106
1174	21757	0.4070022536	104
1174	21757	0.4070022536	102
1174	21757	0.4070022536	100
1174	21757	0.4070022536	98
1174	21757	0.4070022536	96
1174	21757	0.4070022536	94
1174	21757	0.4070022536	92
1174	21757	0.4070022536	90
1174	21757	0.4070022536	88
1174	21757	0.4070022536	86
1174	21757	0.4070022536	84
1174	21757	0.4070022536	82
1174	21757	0.4070022536	80
1174	21757	0.4070022536	78
1174	21757	0.4070022536	76
1174	21757	0.4070022536	74
1174	21757	0.4070022536	72
1174	21757	0.4070022536	70
1174	21757	0.4070022536	68
1174	21757	0.4070022536	66
1174	21757	0.4070022536	64
1174	21757	0.4070022536	62
1174	21757	0.4070022536	60
1174	21757	0.4070022536	58
1174	21757	0.4070022536	56
1174	21757	0.4070022536	54
1174	21757	0.4070022536	52
1174	21757	0.4070022536	50
1174	21757	0.4070022536	48
1174	21757	0.4070022536	46
1174	21757	0.4070022536	44
1174	21757	0.4070022536	42
1174	21757	0.4070022536	40
1174	21757	0.4070022536	38
1174	21757	0.4070022536	36
1174	21757	0.4070022536	34
1174	21757	0.4070022536	32
1174	21757	0.4070022536	30
1174	21757	0.4070022536	28
1174	21757	0.4070022536	26
1174	21757	0.4070022536	24
1174	21757	0.4070022536	22
1174	21757	0.4070022536	20
1174	21757	0.4070022536	18
1174	21757	0.4070022536	16
1174	21757	0.4070022536	14
1174	21757	0.4070022536	12
1174	21757	0.4070022536	10
1174	21757	0.4070022536	8
1174	21757	0.4070022536	6
1174	21757	0.4070022536	4
1174	21757	0.4070022536	2
1174	21757	0.4070022536	0
1175	609	0.007	2
1175	665	0.0070001912	0
1175	665	0.0070001912	2
1175	665	0.0070001912	4
1175	665	0.0070001912	6
1175	665	0.0070001912	8
1175	665	0.0070001912	10
1175	665	0.0070001912	12
1175	665	0.0070001912	14
1175	665	0.0070001912	16
1175	665	0.0070001912	18
1175	665	0.0070001912	20
1175	665	0.0070001912	22
1175	11311	0.2070005424	20
1175	11311	0.2070005424	18
1175	11311	0.2070005424	16
1175	11311	0.2070005424	14
1175	11311	0.2070005424	12
1175	11311	0.2070005424	10
1175	11311	0.2070005424	8
1175	11311	0.2070005424	6
1175	11311	0.2070005424	4
1175	11311	0.2070005424	2
1175	11311	0.2070005424	0
1175	11311	0.2070005424	2
1175	11311	0.2070005424	4
1175	11311	0.2070005424	6
1175	11311	0.2070005424	8
1175	11311	0.2070005424	10
1175	11311	0.2070005424	12
1175	11311	0.2070005424	14
1175	11311	0.2070005424	16
1175	11311	0.2070005424	18
1175	11311	0.2070005424	20
1175	11311	0.2070005424	22
1175	11311	0.2070005424	24
1175	11311	0.2070005424	26
1175	11311	0.2070005424	28
1175	11311	0.2070005424	30
1175	11311	0.2070005424	32
1175	11311	0.2070005424	34
1175	11311	0.2070005424	36
1175	11311	0.2070005424	38
1175	11311	0.2070005424	40
1175	11311	0.2070005424	42
1175	11311	0.2070005424	44
1175	11311	0.2070005424	46
1175	11311	0.2070005424	48
1175	11311	0.2070005424	50
1175	11311	0.2070005424	52
1175	11311	0.2070005424	54
1175	11311	0.2070005424	56
1175	11311	0.2070005424	58
1175	11311	0.2070005424	60
1175	11311	0.2070005424	62
1175	11311	0.2070005424	64
1175	11311	0.2070005424	66
1175	11311	0.2070005424	68
1175	11311	0.2070005424	70
1175	11311	0.2070005424	72
1175	11311	0.2070005424	74
1175	11311	0.2070005424	76
1175	11311	0.2070005424	78
1175	11311	0.2070005424	80
1175	11311	0.2070005424	82
1175	11311	0.2070005424	84
1175	11311	0.2070005424	86
1175	11311	0.2070005424	88
1175	11311	0.2070005424	90
1175	11311	0.2070005424	92
1175	11311	0.2070005424	94
1175	11311	0.2070005424	96
1175	11311	0.2070005424	98
1175	11311	0.2070005424	100
1175	11311	0.2070005424	102
1175	11311	0.2070005424	104
1175	11311	0.2070005424	106
1175	11311	0.2070005424	108
1175	11311	0.2070005424	110
1175	11311	0.2070005424	112
1175	11311	0.2070005424	114
1175	11311	0.2070005424	116
1175	11311	0.2070005424	118
1175	11311	0.2070005424	120
1175	11311	0.2070005424	122
1175	11311	0.2070005424	124
1175	11311	0.2070005424	126
1175	11311	0.2070005424	128
1175	11311	0.2070005424	130
1175	11311	0.2070005424	132
1175	11311	0.2070005424	134
1175	11311	0.2070005424	136
1175	11311	0.2070005424	138
1175	11311	0.2070005424	140
1175	11311	0.2070005424	142
1175	11311	0.2070005424	144
1175	11311	0.2070005424	146
1175	11311	0.2070005424	148
1175	11311	0.2070005424	150
1175	11311	0.2070005424	152
1175	11311	0.2070005424	154
1175	11311	0.2070005424	156
1175	11311	0.2070005424	158
1175	11311	0.2070005424	160
1175	11311	0.2070005424	162
1175	11311	0.2070005424	164
1175	11311	0.2070005424	166
1175	11311	0.2070005424	168
1175	11311	0.2070005424	170
1175	11311	0.2070005424	172
1175	11311	0.2070005424	174
1175	11311	0.2070005424	176
1175	11311	0.2070005424	178
1175	11311	0.2070005424	180
1175	11311	0.2070005424	182
1175	11311	0.2070005424	184
1175	11311	0.2070005424	186
1175	11311	0.2070005424	188
1175	11311	0.2070005424	190
1175	11311	0.2070005424	192
1175	21757	0.4070022536	190
1175	21757	0.4070022536	188
1175	21757	0.4070022536	186
1175	21757	0.4070022536	184
1175	21757	0.4070022536	182
1175	21757	0.4070022536	180
1175	21757	0.4070022536	178
1175	21757	0.4070022536	176
1175	21757	0.4070022536	174
1175	21757	0.4070022536	172
1175	21757	0.4070022536	170
1175	21757	0.4070022536	168
1175	21757	0.4070022536	166
1175	21757	0.4070022536	164
1175	21757	0.4070022536	162
1175	21757	0.4070022536	160
1175	21757	0.4070022536	158
1175	21757	0.4070022536	156
1175	21757	0.4070022536	154
1175	21757	0.4070022536	152
1175	21757	0.4070022536	150
1175	21757	0.4070022536	148
1175	21757	0.4070022536	146
1175	21757	0.4070022536	144
1175	21757	0.4070022536	142
1175	21757	0.4070022536	140
1175	21757	0.4070022536	138
1175	21757	0.4070022536	136
1175	21757	0.4070022536	134
1175	21757	0.4070022536	132
1175	21757	0.4070022536	130
1175	21757	0.4070022536	128
1175	21757	0.4070022536	126
1175	21757	0.4070022536	124
1175	21757	0.4070022536	122
1175	21757	0.4070022536	120
1175	21757	0.4070022536	118
1175	21757	0.4070022536	116
1175	21757	0.4070022536	114
1175	21757	0.4070022536	112
1175	21757	0.4070022536	110
1175	21757	0.4070022536	108
1175	21757	0.4070022536	106
1175	21757	0.4070022536	104
1175	21757	0.4070022536	102
1175	21757	0.4070022536	100
1175	21757	0.4070022536	98
1175	21757	0.4070022536	96
1175	21757	0.4070022536	94
1175	21757	0.4070022536	92
1175	21757	0.4070022536	90
1175	21757	0.4070022536	88
1175	21757	0.4070022536	86
1175	21757	0.4070022536	84
1175	21757	0.4070022536	82
1175	21757	0.4070022536	80
1175	21757	0.4070022536	78
1175	21757	0.4070022536	76
1175	21757	0.4070022536	74
1175	21757	0.4070022536	72
1175	21757	0.4070022536	70
1175	21757	0.4070022536	68
1175	21757	0.4070022536	66
1175	21757	0.4070022536	64
1175	21757	0.4070022536	62
1175	21757	0.4070022536	60
1175	21757	0.4070022536	58
1175	21757	0.4070022536	56
1175	21757	0.4070022536	54
1175	21757	0.4070022536	52
1175	21757	0.4070022536	50
1175	21757	0.4070022536	48
1175	21757	0.4070022536	46
1175	21757	0.4070022536	44
1175	21757	0.4070022536	42
1175	21757	0.4070022536	40
1175	21757	0.4070022536	38
1175	21757	0.4070022536	36
1175	21757	0.4070022536	34
1175	21757	0.4070022536	32
1175	21757	0.4070022536	30
1175	21757	0.4070022536	28
1175	21757	0.4070022536	26
1175	21757	0.4070022536	24
1175	21757	0.4070022536	22
1175	21757	0.4070022536	20
1175	21757	0.4070022536	18
1175	21757	0.4070022536	16
1175	21757	0.4070022536	14
1175	21757	0.4070022536	12
1175	21757	0.4070022536	10
1175	21757	0.4070022536	8
1175	21757	0.4070022536	6
1175	21757	0.4070022536	4
1175	21757	0.4070022536	2
1175	21757	0.4070022536	0
1178	665	0.0070001912	0
1178	11311	0.2070005424	0
1178	21757	0.4070022536	0
1179	665	0.0070001912	0
1179	11311	0.2070005424	0
1179	21757	0.4070022536	0
1180	665	0.0070001912	0
1180	11311	0.2070005424	0
1180	21757	0.4070022536	0
1181	665	0.0070001912	0
1181	11311	0.2070005424	0
1181	21757	0.4070022536	0
1182	150	0.0000001228	0
1185	665	0.0070001912	2000
1185	11311	0.2070005424	2011
1185	21757	0.4070022536	2107
1187	665	0.0070001912	0
1187	11311	0.2070005424	0
1187	21757	0.4070022536	0
1188	665	0.0070001912	0
1188	11311	0.2070005424	0
1188	21757	0.4070022536	0
1304	665	0.0070001912	0
1304	11311	0.2070005424	0
1304	21757	0.4070022536	0
1305	609	0.007	1
1305	609	0.007	0
1305	610	0.007	1
1305	611	0.007	2
1305	612	0.007	3
1305	613	0.007	4
1305	614	0.007	5
1305	615	0.007	6
1305	616	0.007	7
1305	617	0.007	8
1305	618	0.007	9
1305	619	0.007	10
1305	620	0.007	11
1305	665	0.0070001912	10
1305	665	0.0070001912	9
1305	665	0.0070001912	8
1305	665	0.0070001912	7
1305	665	0.0070001912	6
1305	665	0.0070001912	5
1305	665	0.0070001912	4
1305	665	0.0070001912	3
1305	665	0.0070001912	2
1305	665	0.0070001912	1
1305	665	0.0070001912	0
1305	946	0.013	1
1305	947	0.013	2
1305	948	0.013	3
1305	949	0.013	4
1305	950	0.013	5
[...]
786	47187	0.943	0
786	47268	0.944	0
786	47418	0.948	0
786	47471	0.949	0
786	47649	0.953	0
786	47702	0.954	0
786	47900	0.958	0
786	47933	0.959	0
786	48151	0.963	0
786	48184	0.964	0
786	48402	0.968	0
786	48435	0.969	0
786	48605	0.973	0
786	48686	0.974	0
786	48836	0.978	0
786	48889	0.979	0
786	49067	0.983	0
786	49120	0.984	0
786	49318	0.988	0
786	49351	0.989	0
786	49569	0.993	0
786	49602	0.994	0
786	49820	0.998	0
786	49853	0.999	0
786	50039	1.003	0
786	50120	1.004	0
786	50270	1.008	0
786	50323	1.009	0
786	50501	1.013	0
786	50554	1.014	0
786	50752	1.018	0
786	50785	1.019	0
786	51003	1.023	0
786	51036	1.024	0
786	51254	1.028	0
786	51287	1.029	0
786	51457	1.033	0
786	51538	1.034	0
786	51688	1.038	0
786	51741	1.039	0
786	51919	1.043	0
786	51972	1.044	0
786	52170	1.048	0
786	52203	1.049	0
786	52421	1.053	0
786	52454	1.054	0
786	52672	1.058	0
786	52705	1.059	0
786	52875	1.063	0
786	52956	1.064	0
786	53106	1.068	0
786	53159	1.069	0
786	53337	1.073	0
786	53390	1.074	0
786	53588	1.078	0
786	53621	1.079	0
786	53839	1.083	0
786	53872	1.084	0
786	54090	1.088	0
786	54123	1.089	0
786	54293	1.093	0
786	54374	1.094	0
786	54524	1.098	0
786	54577	1.099	0
786	54771	1.103	0
786	54824	1.104	0
786	55022	1.108	0
786	55055	1.109	0
786	55273	1.113	0
786	55306	1.114	0
786	55524	1.118	0
786	55557	1.119	0
786	55727	1.123	0
786	55808	1.124	0
786	55958	1.128	0
786	56011	1.129	0
786	56189	1.133	0
786	56242	1.134	0
786	56440	1.138	0
786	56473	1.139	0
786	56691	1.143	0
786	56724	1.144	0
788	1326	0.021	0
788	1594	0.026	0
788	1629	0.027	0
788	3952	0.064	0
788	4315	0.069	0
788	4597	0.074	0
788	4784	0.077	0
788	4834	0.078	0
788	4887	0.079	0
788	5118	0.083	0
788	5180	0.084	0
788	5403	0.087	0
788	5446	0.088	0
788	5479	0.089	0
788	5626	0.092	0
788	5782	0.093	0
788	5816	0.094	0
788	5949	0.097	0
788	6034	0.098	0
788	6115	0.099	0
788	6244	0.102	0
788	6301	0.103	0
788	6382	0.104	0
788	6523	0.107	0
788	6580	0.108	0
788	6633	0.109	0
788	6774	0.112	0
788	6811	0.113	0
788	6864	0.114	0
788	7025	0.117	0
788	7062	0.118	0
788	7095	0.119	0
788	7228	0.122	0
788	7313	0.123	0
788	7346	0.124	0
788	7479	0.127	0
788	7564	0.128	0
788	7597	0.129	0
788	7710	0.132	0
788	7767	0.133	0
788	7848	0.134	0
788	7941	0.137	0
788	7998	0.138	0
788	8051	0.139	0
788	8192	0.142	0
788	8229	0.143	0
788	8282	0.144	0
788	8443	0.147	0
788	8480	0.148	0
788	8513	0.149	0
788	8646	0.152	0
788	8731	0.153	0
788	8764	0.154	0
788	8897	0.157	0
788	8982	0.158	0
788	9015	0.159	0
788	9128	0.162	0
788	9185	0.163	0
788	9266	0.164	0
788	9359	0.167	0
788	9416	0.168	0
788	9469	0.169	0
788	9610	0.172	0
788	9647	0.173	0
788	9700	0.174	0
788	9861	0.177	0
788	9898	0.178	0
788	9931	0.179	0
788	10064	0.182	0
788	10149	0.183	0
788	10182	0.184	0
788	10315	0.187	0
788	10400	0.188	0
788	10433	0.189	0
788	10546	0.192	0
788	10603	0.193	0
788	10684	0.194	0
788	10777	0.197	0
788	10834	0.198	0
788	10887	0.199	0
788	11044	0.202	0
788	11081	0.203	0
788	11134	0.204	0
788	11295	0.207	0
788	11827	0.208	0
788	11860	0.209	0
788	11993	0.212	0
788	12078	0.213	0
788	12111	0.214	0
788	12244	0.217	0
788	12329	0.218	0
788	12362	0.219	0
788	12475	0.222	0
788	12532	0.223	0
788	12613	0.224	0
788	12706	0.227	0
788	12763	0.228	0
788	12816	0.229	0
788	12957	0.232	0
788	12994	0.233	0
788	13047	0.234	0
788	13208	0.237	0
788	13245	0.238	0
788	13278	0.239	0
788	13411	0.242	0
788	13496	0.243	0
788	13529	0.244	0
788	13662	0.247	0
788	13747	0.248	0
788	13780	0.249	0
788	13893	0.252	0
788	13950	0.253	0
788	14031	0.254	0
788	14124	0.257	0
788	14676	0.258	0
788	14729	0.259	0
788	14870	0.262	0
788	14907	0.263	0
788	14960	0.264	0
788	15121	0.267	0
788	15158	0.268	0
788	15191	0.269	0
788	15324	0.272	0
788	15409	0.273	0
788	15442	0.274	0
788	15575	0.277	0
788	15660	0.278	0
788	15693	0.279	0
788	15806	0.282	0
788	15863	0.283	0
788	15944	0.284	0
788	16037	0.287	0
788	16094	0.288	0
788	16147	0.289	0
788	16288	0.292	0
788	16325	0.293	0
788	16378	0.294	0
788	16539	0.297	0
788	16576	0.298	0
788	16609	0.299	0
788	16758	0.302	0
788	16843	0.303	0
788	16876	0.304	0
788	17009	0.307	0
788	17094	0.308	0
788	17127	0.309	0
788	17240	0.312	0
788	17297	0.313	0
788	17378	0.314	0
788	17471	0.317	0
788	17528	0.318	0
788	17581	0.319	0
788	17722	0.322	0
788	17759	0.323	0
788	17812	0.324	0
788	17973	0.327	0
788	18010	0.328	0
788	18043	0.329	0
788	18176	0.332	0
788	18261	0.333	0
788	18294	0.334	0
788	18427	0.337	0
788	18512	0.338	0
788	18545	0.339	0
788	18658	0.342	0
788	18715	0.343	0
788	18796	0.344	0
788	18889	0.347	0
788	18946	0.348	0
788	18999	0.349	0
788	19140	0.352	0
788	19177	0.353	0
788	19230	0.354	0
788	19391	0.357	0
788	19428	0.358	0
788	19461	0.359	0
788	19594	0.362	0
788	19679	0.363	0
788	19712	0.364	0
788	19845	0.367	0
788	19930	0.368	0
788	19963	0.369	0
788	20076	0.372	0
788	20133	0.373	0
788	20214	0.374	0
788	20307	0.377	0
788	20364	0.378	0
788	20417	0.379	0
788	20558	0.382	0
788	20595	0.383	0
788	20648	0.384	0
788	20809	0.387	0
788	20846	0.388	0
788	20879	0.389	0
788	21012	0.392	0
788	21097	0.393	0
788	21130	0.394	0
788	21263	0.397	0
788	21348	0.398	0
788	21381	0.399	0
788	21510	0.402	0
788	21567	0.403	0
788	21648	0.404	0
788	21741	0.407	0
788	21806	0.408	0
788	21859	0.409	0
788	22000	0.412	0
788	22037	0.413	0
788	22090	0.414	0
788	22251	0.417	0
788	22288	0.418	0
788	22321	0.419	0
788	22454	0.422	0
788	22539	0.423	0
788	22572	0.424	0
788	22705	0.427	0
788	22790	0.428	0
788	22823	0.429	0
788	22936	0.432	0
788	22993	0.433	0
788	23074	0.434	0
788	23167	0.437	0
788	23224	0.438	0
788	23277	0.439	0
788	23418	0.442	0
788	23455	0.443	0
788	23508	0.444	0
788	23669	0.447	0
788	23706	0.448	0
788	23739	0.449	0
788	23872	0.452	0
788	23957	0.453	0
788	23990	0.454	0
788	24123	0.457	0
788	24216	0.458	0
788	24249	0.459	0
788	24362	0.462	0
788	24419	0.463	0
788	24500	0.464	0
788	24593	0.467	0
788	24650	0.468	0
788	24703	0.469	0
788	24844	0.472	0
788	24881	0.473	0
788	24934	0.474	0
788	25095	0.477	0
788	25132	0.478	0
788	25165	0.479	0
788	25298	0.482	0
788	25383	0.483	0
788	25416	0.484	0
788	25549	0.487	0
788	25634	0.488	0
788	25667	0.489	0
788	25780	0.492	0
788	25837	0.493	0
788	25918	0.494	0
788	26011	0.497	0
788	26068	0.498	0
788	26121	0.499	0
788	26278	0.502	0
788	26315	0.503	0
788	26368	0.504	0
788	26529	0.507	0
788	26566	0.508	0
788	26599	0.509	0
788	26732	0.512	0
788	26817	0.513	0
788	26850	0.514	0
788	26983	0.517	0
788	27068	0.518	0
788	27101	0.519	0
788	27214	0.522	0
788	27271	0.523	0
788	27352	0.524	0
788	27445	0.527	0
788	27502	0.528	0
788	27555	0.529	0
788	27696	0.532	0
788	27733	0.533	0
788	27786	0.534	0
788	27947	0.537	0
788	27984	0.538	0
788	28017	0.539	0
788	28150	0.542	0
788	28235	0.543	0
788	28268	0.544	0
788	28401	0.547	0
788	28486	0.548	0
788	28519	0.549	0
788	28632	0.552	0
788	28689	0.553	0
788	28770	0.554	0
788	28863	0.557	0
788	28920	0.558	0
788	28973	0.559	0
788	29114	0.562	0
788	29151	0.563	0
788	29204	0.564	0
788	29365	0.567	0
788	29402	0.568	0
788	29435	0.569	0
788	29568	0.572	0
788	29653	0.573	0
788	29686	0.574	0
788	29819	0.577	0
788	29904	0.578	0
788	29937	0.579	0
788	30050	0.582	0
788	30107	0.583	0
788	30188	0.584	0
788	30281	0.587	0
788	30338	0.588	0
788	30391	0.589	0
788	30532	0.592	0
788	30569	0.593	0
788	30622	0.594	0
788	30783	0.597	0
788	30820	0.598	0
788	30853	0.599	0
788	31002	0.602	0
788	31087	0.603	0
788	31120	0.604	0
788	31253	0.607	0
788	31338	0.608	0
788	31371	0.609	0
788	31484	0.612	0
788	31541	0.613	0
788	31622	0.614	0
788	31715	0.617	0
788	31772	0.618	0
788	31825	0.619	0
788	31966	0.622	0
788	32003	0.623	0
788	32056	0.624	0
788	32217	0.627	0
788	32254	0.628	0
788	32287	0.629	0
788	32420	0.632	0
788	32505	0.633	0
788	32538	0.634	0
788	32671	0.637	0
788	32756	0.638	0
788	32789	0.639	0
788	32902	0.642	0
788	32959	0.643	0
788	33040	0.644	0
788	33133	0.647	0
788	33190	0.648	0
788	33243	0.649	0
788	33384	0.652	0
788	33421	0.653	0
788	33474	0.654	0
788	33635	0.657	0
788	33672	0.658	0
788	33705	0.659	0
788	33838	0.662	0
788	33923	0.663	0
788	33956	0.664	0
788	34089	0.667	0
788	34174	0.668	0
788	34207	0.669	0
788	34320	0.672	0
788	34377	0.673	0
788	34458	0.674	0
788	34551	0.677	0
788	34608	0.678	0
788	34661	0.679	0
788	34802	0.682	0
788	34839	0.683	0
788	34892	0.684	0
788	35053	0.687	0
788	35090	0.688	0
788	35123	0.689	0
788	35256	0.692	0
788	35341	0.693	0
788	35374	0.694	0
788	35507	0.697	0
788	35592	0.698	0
788	35625	0.699	0
788	35754	0.702	0
788	35811	0.703	0
788	35892	0.704	0
788	35985	0.707	0
788	36042	0.708	0
788	36095	0.709	0
788	36236	0.712	0
788	36273	0.713	0
788	36326	0.714	0
788	36487	0.717	0
788	36524	0.718	0
788	36557	0.719	0
788	36690	0.722	0
788	36775	0.723	0
788	36808	0.724	0
788	36941	0.727	0
788	37026	0.728	0
788	37059	0.729	0
788	37172	0.732	0
788	37229	0.733	0
788	37310	0.734	0
788	37403	0.737	0
788	37460	0.738	0
788	37513	0.739	0
788	37654	0.742	0
788	37691	0.743	0
788	37744	0.744	0
788	37905	0.747	0
788	37942	0.748	0
788	37975	0.749	0
788	38108	0.752	0
788	38193	0.753	0
788	38226	0.754	0
788	38359	0.757	0
788	38444	0.758	0
788	38477	0.759	0
788	38590	0.762	0
788	38647	0.763	0
788	38728	0.764	0
788	38821	0.767	0
788	38878	0.768	0
788	38931	0.769	0
788	39072	0.772	0
788	39109	0.773	0
788	39162	0.774	0
788	39323	0.777	0
788	39360	0.778	0
788	39393	0.779	0
788	39526	0.782	0
788	39611	0.783	0
788	39644	0.784	0
788	39777	0.787	0
788	39862	0.788	0
788	39895	0.789	0
788	40008	0.792	0
788	40065	0.793	0
788	40146	0.794	0
788	40239	0.797	0
788	40296	0.798	0
788	40349	0.799	0
788	40506	0.802	0
788	40543	0.803	0
788	40596	0.804	0
788	40757	0.807	0
788	40794	0.808	0
788	40827	0.809	0
788	40960	0.812	0
788	41045	0.813	0
788	41078	0.814	0
788	41211	0.817	0
788	41296	0.818	0
788	41329	0.819	0
788	41442	0.822	0
788	41499	0.823	0
788	41580	0.824	0
788	41673	0.827	0
788	41730	0.828	0
788	41783	0.829	0
788	41924	0.832	0
788	41961	0.833	0
788	42014	0.834	0
788	42175	0.837	0
788	42212	0.838	0
788	42245	0.839	0
788	42378	0.842	0
788	42463	0.843	0
788	42496	0.844	0
788	42629	0.847	0
788	42714	0.848	0
788	42747	0.849	0
788	42860	0.852	0
788	42917	0.853	0
788	42998	0.854	0
788	43091	0.857	0
788	43148	0.858	0
788	43201	0.859	0
788	43342	0.862	0
788	43379	0.863	0
788	43432	0.864	0
788	43593	0.867	0
788	43630	0.868	0
788	43663	0.869	0
788	43796	0.872	0
788	43881	0.873	0
788	43914	0.874	0
788	44047	0.877	0
788	44132	0.878	0
788	44165	0.879	0
788	44278	0.882	0
788	44335	0.883	0
788	44416	0.884	0
788	44509	0.887	0
788	44566	0.888	0
788	44619	0.889	0
788	44760	0.892	0
788	44797	0.893	0
788	44850	0.894	0
788	45011	0.897	0
788	45048	0.898	0
788	45081	0.899	0
788	45230	0.902	0
788	45315	0.903	0
788	45348	0.904	0
788	45481	0.907	0
788	45566	0.908	0
788	45599	0.909	0
788	45712	0.912	0
788	45769	0.913	0
788	45850	0.914	0
788	45943	0.917	0
788	46000	0.918	0
788	46053	0.919	0
788	46194	0.922	0
788	46231	0.923	0
788	46284	0.924	0
788	46445	0.927	0
788	46482	0.928	0
788	46515	0.929	0
788	46648	0.932	0
788	46733	0.933	0
788	46766	0.934	0
788	46899	0.937	0
788	46984	0.938	0
788	47017	0.939	0
788	47130	0.942	0
788	47187	0.943	0
788	47268	0.944	0
788	47361	0.947	0
788	47418	0.948	0
788	47471	0.949	0
788	47612	0.952	0
788	47649	0.953	0
788	47702	0.954	0
788	47863	0.957	0
788	47900	0.958	0
788	47933	0.959	0
788	48066	0.962	0
788	48151	0.963	0
788	48184	0.964	0
788	48317	0.967	0
788	48402	0.968	0
788	48435	0.969	0
788	48548	0.972	0
788	48605	0.973	0
788	48686	0.974	0
788	48779	0.977	0
788	48836	0.978	0
788	48889	0.979	0
788	49030	0.982	0
788	49067	0.983	0
788	49120	0.984	0
788	49281	0.987	0
788	49318	0.988	0
788	49351	0.989	0
788	49484	0.992	0
788	49569	0.993	0
788	49602	0.994	0
788	49735	0.997	0
788	49820	0.998	0
788	49853	0.999	0
788	49982	1.002	0
788	50039	1.003	0
788	50120	1.004	0
788	50213	1.007	0
788	50270	1.008	0
788	50323	1.009	0
788	50464	1.012	0
788	50501	1.013	0
788	50554	1.014	0
788	50715	1.017	0
788	50752	1.018	0
788	50785	1.019	0
788	50918	1.022	0
788	51003	1.023	0
788	51036	1.024	0
788	51169	1.027	0
788	51254	1.028	0
788	51287	1.029	0
788	51400	1.032	0
788	51457	1.033	0
788	51538	1.034	0
788	51631	1.037	0
788	51688	1.038	0
788	51741	1.039	0
788	51882	1.042	0
788	51919	1.043	0
788	51972	1.044	0
788	52133	1.047	0
788	52170	1.048	0
788	52203	1.049	0
788	52336	1.052	0
788	52421	1.053	0
788	52454	1.054	0
788	52587	1.057	0
788	52672	1.058	0
788	52705	1.059	0
788	52818	1.062	0
788	52875	1.063	0
788	52956	1.064	0
788	53049	1.067	0
788	53106	1.068	0
788	53159	1.069	0
788	53300	1.072	0
788	53337	1.073	0
788	53390	1.074	0
788	53551	1.077	0
788	53588	1.078	0
788	53621	1.079	0
788	53754	1.082	0
788	53839	1.083	0
788	53872	1.084	0
788	54005	1.087	0
788	54090	1.088	0
788	54123	1.089	0
788	54236	1.092	0
788	54293	1.093	0
788	54374	1.094	0
788	54467	1.097	0
788	54524	1.098	0
788	54577	1.099	0
788	54734	1.102	0
788	54771	1.103	0
788	54824	1.104	0
788	54985	1.107	0
788	55022	1.108	0
788	55055	1.109	0
788	55188	1.112	0
788	55273	1.113	0
788	55306	1.114	0
788	55439	1.117	0
788	55524	1.118	0
788	55557	1.119	0
788	55670	1.122	0
788	55727	1.123	0
788	55808	1.124	0
788	55901	1.127	0
788	55958	1.128	0
788	56011	1.129	0
788	56152	1.132	0
788	56189	1.133	0
788	56242	1.134	0
788	56403	1.137	0
788	56440	1.138	0
788	56473	1.139	0
788	56606	1.142	0
788	56691	1.143	0
788	56724	1.144	0
788	56857	1.147	0
794	5403	0.087	1
794	5626	0.092	2
794	5949	0.097	3
794	6244	0.102	4
794	6523	0.107	5
794	6774	0.112	6
794	7025	0.117	7
794	7228	0.122	8
794	7479	0.127	9
794	7710	0.132	10
794	7941	0.137	11
794	8192	0.142	12
794	8443	0.147	13
794	8646	0.152	14
794	8897	0.157	15
794	9128	0.162	16
794	9359	0.167	17
794	9610	0.172	18
794	9861	0.177	19
794	10064	0.182	20
794	10315	0.187	21
794	10546	0.192	22
794	10777	0.197	23
794	11044	0.202	24
794	11295	0.207	25
794	11993	0.212	26
794	12244	0.217	27
794	12475	0.222	28
794	12706	0.227	29
794	12957	0.232	30
794	13208	0.237	31
794	13411	0.242	32
794	13662	0.247	33
794	13893	0.252	34
794	14124	0.257	35
794	14870	0.262	36
794	15121	0.267	37
794	15324	0.272	38
794	15575	0.277	39
794	15806	0.282	40
794	16037	0.287	41
794	16288	0.292	42
794	16539	0.297	43
794	16758	0.302	44
794	17009	0.307	45
794	17240	0.312	46
794	17471	0.317	47
794	17722	0.322	48
794	17973	0.327	49
794	18176	0.332	50
794	18427	0.337	51
794	18658	0.342	52
794	18889	0.347	53
794	19140	0.352	54
794	19391	0.357	55
794	19594	0.362	56
794	19845	0.367	57
794	20076	0.372	58
794	20307	0.377	59
794	20558	0.382	60
794	20809	0.387	61
794	21012	0.392	62
794	21263	0.397	63
794	21510	0.402	64
794	21741	0.407	65
794	22000	0.412	66
794	22251	0.417	67
794	22454	0.422	68
794	22705	0.427	69
794	22936	0.432	70
794	23167	0.437	71
794	23418	0.442	72
794	23669	0.447	73
794	23872	0.452	74
794	24123	0.457	75
794	24362	0.462	76
794	24593	0.467	77
794	24844	0.472	78
794	25095	0.477	79
794	25298	0.482	80
794	25549	0.487	81
794	25780	0.492	82
794	26011	0.497	83
794	26278	0.502	84
794	26529	0.507	85
794	26732	0.512	86
794	26983	0.517	87
794	27214	0.522	88
794	27445	0.527	89
794	27696	0.532	90
794	27947	0.537	91
794	28150	0.542	92
794	28401	0.547	93
794	28632	0.552	94
794	28863	0.557	95
794	29114	0.562	96
794	29365	0.567	97
794	29568	0.572	98
794	29819	0.577	99
794	30050	0.582	100
794	30281	0.587	101
794	30532	0.592	102
794	30783	0.597	103
794	31002	0.602	104
794	31253	0.607	105
794	31484	0.612	106
794	31715	0.617	107
794	31966	0.622	108
794	32217	0.627	109
794	32420	0.632	110
794	32671	0.637	111
794	32902	0.642	112
794	33133	0.647	113
794	33384	0.652	114
794	33635	0.657	115
794	33838	0.662	116
794	34089	0.667	117
794	34320	0.672	118
794	34551	0.677	119
794	34802	0.682	120
794	35053	0.687	121
794	35256	0.692	122
794	35507	0.697	123
794	35754	0.702	124
794	35985	0.707	125
794	36236	0.712	126
794	36487	0.717	127
794	36690	0.722	128
794	36941	0.727	129
794	37172	0.732	130
794	37403	0.737	131
794	37654	0.742	132
794	37905	0.747	133
794	38108	0.752	134
794	38359	0.757	135
794	38590	0.762	136
794	38821	0.767	137
794	39072	0.772	138
794	39323	0.777	139
794	39526	0.782	140
794	39777	0.787	141
794	40008	0.792	142
794	40239	0.797	143
794	40506	0.802	144
794	40757	0.807	145
794	40960	0.812	146
794	41211	0.817	147
794	41442	0.822	148
794	41673	0.827	149
794	41924	0.832	150
794	42175	0.837	151
794	42378	0.842	152
794	42629	0.847	153
794	42860	0.852	154
794	43091	0.857	155
794	43342	0.862	156
794	43593	0.867	157
794	43796	0.872	158
794	44047	0.877	159
794	44278	0.882	160
794	44509	0.887	161
794	44760	0.892	162
794	45011	0.897	163
794	45230	0.902	164
794	45481	0.907	165
794	45712	0.912	166
794	45943	0.917	167
794	46194	0.922	168
794	46445	0.927	169
794	46648	0.932	170
794	46899	0.937	171
794	47130	0.942	172
794	47361	0.947	173
794	47612	0.952	174
794	47863	0.957	175
794	48066	0.962	176
794	48317	0.967	177
794	48548	0.972	178
794	48779	0.977	179
794	49030	0.982	180
794	49281	0.987	181
794	49484	0.992	182
794	49735	0.997	183
794	49982	1.002	184
794	50213	1.007	185
794	50464	1.012	186
794	50715	1.017	187
794	50918	1.022	188
794	51169	1.027	189
794	51400	1.032	190
794	51631	1.037	191
794	51882	1.042	192
794	52133	1.047	193
794	52336	1.052	194
794	52587	1.057	195
794	52818	1.062	196
794	53049	1.067	197
794	53300	1.072	198
794	53551	1.077	199
794	53754	1.082	200
794	54005	1.087	201
794	54236	1.092	202
794	54467	1.097	203
794	54734	1.102	204
794	54985	1.107	205
794	55188	1.112	206
794	55439	1.117	207
794	55670	1.122	208
794	55901	1.127	209
794	56152	1.132	210
794	56403	1.137	211
794	56606	1.142	212
794	56857	1.147	213
807	0	0	1
813	1673	0.028524626123	44
816	1673	0.028524626123	45
817	1676	0.028524626123	45
817	1974	0.033	33
817	2281	0.038	16
818	1865	0.031	0
818	1929	0.032	0
818	2121	0.036	0
818	2230	0.037	0
818	2316	0.038	0
818	2318	0.038	0
818	2353	0.039	0
818	2356	0.039	0
818	2599	0.043	0
818	2601	0.043	0
818	2660	0.044	0
818	2663	0.044	0
819	1970	0.033	0
819	2277	0.038	0
820	1698	0.029	0
820	1981	0.033	0
820	2012	0.034	0
820	2287	0.038	0
820	2353	0.039	0
820	2356	0.039	0
820	2660	0.044	0
820	2663	0.044	0
839	0	0	1
1319	1241	0.019660798032	7504
1320	1241	0.019660798032	7504
1322	1241	0.019660798032	0
1333	1241	0.019660798032	0
1343	1358	0.022555459228	7504
1344	1358	0.022555459228	7504
1346	1358	0.022555459228	0
1357	1358	0.022555459228	0
1367	1533	0.025952952534	7504
1368	1533	0.025952952534	7504
1370	1533	0.025952952534	0
1381	1533	0.025952952534	0
1391	1670	0.028524626123	7504
1392	1670	0.028524626123	7504
1394	1670	0.028524626123	0
1405	1670	0.028524626123	0
1415	1937	0.032752273618	7504
1416	1937	0.032752273618	7504
1418	1937	0.032752273618	0
1429	1937	0.032752273618	0
1439	2247	0.037729873816	7504
1440	2247	0.037729873816	7504
1442	2247	0.037729873816	0
1453	2247	0.037729873816	0
1463	2742	0.046595396413	7504
1464	2742	0.046595396413	7504
1466	2742	0.046595396413	0
1477	2742	0.046595396413	0
1487	3114	0.053440309435	7504
1488	3114	0.053440309435	7504
1490	3114	0.053440309435	0
1501	3114	0.053440309435	0
1511	3122	0.05394782705	7504
1512	3122	0.05394782705	7504
1514	3122	0.05394782705	0
1525	3122	0.05394782705	0
1535	3292	0.055913616046	7504
1536	3292	0.055913616046	7504
1538	3292	0.055913616046	0
1549	3292	0.055913616046	0
1559	3586	0.058808041334	7504
1560	3586	0.058808041334	7504
1562	3586	0.058808041334	0
1573	3586	0.058808041334	0
1583	3684	0.060918334927	7504
1584	3684	0.060918334927	7504
1586	3684	0.060918334927	0
1597	3684	0.060918334927	0
1607	4048	0.066956260251	7504
1608	4048	0.066956260251	7504
1610	4048	0.066956260251	0
1621	4048	0.066956260251	0
1631	4223	0.068834142487	7504
1632	4223	0.068834142487	7504
1634	4223	0.068834142487	0
1645	4223	0.068834142487	0
1655	4321	0.069116189484	7504
1656	4321	0.069116189484	7504
1658	4321	0.069116189484	0
1669	4321	0.069116189484	0
1679	4622	0.074373740533	7504
1680	4622	0.074373740533	7504
1682	4622	0.074373740533	0
1693	4622	0.074373740533	0
1703	4717	0.07505697578	7504
1704	4717	0.07505697578	7504
1706	4717	0.07505697578	0
1717	4717	0.07505697578	0
1727	5082	0.08215464002	7504
1728	5082	0.08215464002	7504
1730	5082	0.08215464002	0
1741	5082	0.08215464002	0
1751	5121	0.083428886256	7504
1752	5121	0.083428886256	7504
1754	5121	0.083428886256	0
1765	5121	0.083428886256	0
1775	5327	0.086610205313	7504
1776	5327	0.086610205313	7504
1778	5327	0.086610205313	0
1789	5327	0.086610205313	0
