file 11285911 1589571327                                        
version 2
run CAIN-83-20200515-16:26:25-18527
attr configname CAIN
attr datetime 20200515-16:26:25
attr dist 200
attr experiment CAIN
attr inifile omnetpp.ini
attr iterationvars "$numUe=30, $pwr=-50, $dist=200, $mob=\"./movements/RWPRPGM-0.0.movements\""
attr iterationvars2 "$numUe=30, $pwr=-50, $dist=200, $mob=\"./movements/RWPRPGM-0.0.movements\", $repetition=3"
attr measurement "$numUe=30, $pwr=-50, $dist=200, $mob=\"./movements/RWPRPGM-0.0.movements\""
attr mob "\"./movements/RWPRPGM-0.0.movements\""
attr network lte.simulations.networks.CAIN
attr numUe 30
attr processid 18527
attr pwr -50
attr repetition 3
attr replication #3
attr resultdir results
attr runnumber 83
attr seedset 3
param **.**.amcMode "\"AUTO\""
param **.amcMode "\"D2D\""
param **.cainNetwork true
param **.channelControl.alpha 1.0
param **.channelControl.carrierFrequency 2100e+6Hz
param **.channelControl.pMax 10W
param **.d2dCqi 7
param **.deployer.numRbDl 50
param **.deployer.numRbUl 50
param **.distThresh ${dist=200}
param **.fbDelay 1
param **.feedbackComputation "xmldoc(\"config_channel.xml\")"
param **.mobility.constraintAreaMaxX 1000m
param **.mobility.constraintAreaMaxY 1000m
param **.mobility.constraintAreaMaxZ 0m
param **.mobility.constraintAreaMinX 0m
param **.mobility.constraintAreaMinY 0m
param **.mobility.constraintAreaMinZ 0m
param **.nic.phy.channelModel "xmldoc(\"config_channel.xml\")"
param **.numBands 50
param **.pwrThresh "${pwr= -50}"
param **.qtdThresh 3
param **.rbAllocationType "\"localized\""
param **.routingRecorder.enabled false
param **.tcpApp[*].tClose -1s
param **.ueD2DTx[*].mobility.changeAngleBy "normal(0deg, 30deg)"
param **.ueD2DTx[*].mobility.changeInterval "normal(5s, 0.1s)"
param **.ueD2DTx[*].mobility.nodeId -1
param **.ueD2DTx[*].mobility.speed "normal(2mps, 0.01mps)"
param **.ueD2DTx[*].mobility.traceFile "${mob=\"./movements/RWP-0.0.movements\",\"./movements/RWP-0.5.movements\",\"./movements/RPGM-0.0.movements\",\"./movements/RPGM-0.5.movements\",\"./movements/RWPRPGM-0.0.movements\",\"./movements/RWPRPGM-0.5.movements\"}"
param **.ueD2DTx[*].mobilityType "\"BonnMotionMobility\""
param **.usePreconfiguredTxParams false
param *.eNodeB*.numX2Apps 1
param *.eNodeB*.x2App[*].server.localPort "5000 + ancestorIndex(1)"
param *.eNodeB.d2dCapable false
param *.eNodeB.mobility.initFromDisplayString false
param *.eNodeB.mobility.initialX 300m
param *.eNodeB.mobility.initialY 300m
param *.eNodeB.nic.phy.enableD2DCqiReporting true
param *.eNodeB.txPower 19952.62315mw
param *.eNodeB.x2App[0].client.connectAddress "\"eNodeB1%x2ppp0\""
param *.eNodeB1.d2dCapable true
param *.eNodeB1.mobility.initFromDisplayString false
param *.eNodeB1.mobility.initialX 700m
param *.eNodeB1.mobility.initialY 300m
param *.eNodeB1.nic.phy.enableD2DCqiReporting true
param *.eNodeB1.txPower 19952.62315mw
param *.eNodeB1.x2App[0].client.connectAddress "\"eNodeB%x2ppp0\""
param *.extCell[*].bandAllocationType "\"FULL_ALLOC\""
param *.extCell[*].bandUtilization 0.5
param *.extCell[*].txDirection "\"ANISOTROPIC\""
param *.extCell[*].txPower 20
param *.extCell[0].position_x 100m
param *.extCell[0].position_y 600m
param *.extCell[0].txAngle 315
param *.extCell[1].position_x 600m
param *.extCell[1].position_y 600m
param *.extCell[1].txAngle 225
param *.numExtCells 2
param *.numUeCell 0
param *.numUeD2DRx 1
param *.numUeD2DTx 1
param *.ue*.macCellId 1
param *.ue*.masterId 1
param *.ue*.mobility.initFromDisplayString false
param *.ue*[0].macCellId 1
param *.ue*[0].masterId 1
param *.ue*[0].mobility.initFromDisplayString false
param *.ueD2D*.numTcpApps 1
param *.ueD2D*[*].d2dCapable true
param *.ueD2D*[0].d2dCapable false
param *.ueD2D*[0].numTcpApps 1
param *.ueD2DRx[0].mobility.initialX 310m
param *.ueD2DRx[0].mobility.initialY 350m
param *.ueD2DRx[0].tcpApp[*].localPort 1000
param *.ueD2DRx[0].tcpApp[*].typename "\"TCPSinkApp\""
param *.ueD2DTx*.nic.d2dPeerAddresses "\"ueD2DTx[1]\""
param *.ueD2DTx*.tcpApp[*].connectAddress "\"ueD2DTx[0]\""
param *.ueD2DTx*.tcpApp[*].localAddress "\"ueD2DTx\""
param *.ueD2DTx*.tcpApp[*].localPort 1000
param *.ueD2DTx*.tcpApp[*].sendBytes 1GiB
param *.ueD2DTx*.tcpApp[*].typename "\"TCPSessionApp\""
param *.ueD2DTx*.tcpApp[0].active true
param *.ueD2DTx*.tcpApp[0].connectPort 1000
param *.ueD2DTx*.tcpApp[0].tOpen uniform(0.010s,0.1s)
param *.ueD2DTx*.tcpApp[0].tSend uniform(0.15s,0.5s)
param *.ueD2DTx[0].mobility.initialX 290m
param *.ueD2DTx[0].mobility.initialY 350m
param *.ueD2DTx[0].tcpApp[*].localPort 1000
param *.ueD2DTx[0].tcpApp[*].sendBytes 1GiB
param *.ueD2DTx[0].tcpApp[*].typename "\"TCPSessionApp\""
param *.ueD2DTx[0].tcpApp[0].active true
param *.ueD2DTx[0].tcpApp[0].connectAddress "\"ueD2DRx[0]\""
param *.ueD2DTx[0].tcpApp[0].connectPort 1000
param *.ueD2DTx[0].tcpApp[0].localAddress "\"ueD2DTx[0]\""
param *.ueD2DTx[0].tcpApp[0].tOpen uniform(0.010s,0.1s)
param *.ueD2DTx[0].tcpApp[0].tSend uniform(0.15s,0.5s)

vector 8  CAIN.server.ppp[0].queue  queueLength:vector  ETV
attr interpolationmode  sample-hold
attr title  "queue length, vector"
vector 9  CAIN.server.ppp[0].ppp  txState:vector  ETV
attr interpolationmode  sample-hold
attr title  "tx state, vector"
vector 24  CAIN.router.ppp[0].queue  queueLength:vector  ETV
attr interpolationmode  sample-hold
attr title  "queue length, vector"
vector 25  CAIN.router.ppp[0].ppp  txState:vector  ETV
attr interpolationmode  sample-hold
attr title  "tx state, vector"
vector 35  CAIN.router.ppp[1].queue  queueLength:vector  ETV
attr interpolationmode  sample-hold
attr title  "queue length, vector"
vector 36  CAIN.router.ppp[1].ppp  txState:vector  ETV
attr interpolationmode  sample-hold
attr title  "tx state, vector"
vector 56  CAIN.pgw.ppp[0].queue  queueLength:vector  ETV
attr interpolationmode  sample-hold
attr title  "queue length, vector"
vector 57  CAIN.pgw.ppp[0].ppp  txState:vector  ETV
attr interpolationmode  sample-hold
attr title  "tx state, vector"
vector 67  CAIN.pgw.ppp[1].queue  queueLength:vector  ETV
attr interpolationmode  sample-hold
attr title  "queue length, vector"
vector 68  CAIN.pgw.ppp[1].ppp  txState:vector  ETV
attr interpolationmode  sample-hold
attr title  "tx state, vector"
vector 78  CAIN.pgw.pppInterface.queue  queueLength:vector  ETV
attr interpolationmode  sample-hold
attr title  "queue length, vector"
vector 79  CAIN.pgw.pppInterface.ppp  txState:vector  ETV
attr interpolationmode  sample-hold
attr title  "tx state, vector"
vector 120  CAIN.eNodeB.pppIf.queue  queueLength:vector  ETV
attr interpolationmode  sample-hold
attr title  "queue length, vector"
vector 121  CAIN.eNodeB.pppIf.ppp  txState:vector  ETV
attr interpolationmode  sample-hold
attr title  "tx state, vector"
vector 131  CAIN.eNodeB.x2ppp[0].queue  queueLength:vector  ETV
attr interpolationmode  sample-hold
attr title  "queue length, vector"
vector 132  CAIN.eNodeB.x2ppp[0].ppp  txState:vector  ETV
attr interpolationmode  sample-hold
attr title  "tx state, vector"
vector 178  CAIN.eNodeB1.pppIf.queue  queueLength:vector  ETV
attr interpolationmode  sample-hold
attr title  "queue length, vector"
vector 179  CAIN.eNodeB1.pppIf.ppp  txState:vector  ETV
attr interpolationmode  sample-hold
attr title  "tx state, vector"
vector 189  CAIN.eNodeB1.x2ppp[0].queue  queueLength:vector  ETV
attr interpolationmode  sample-hold
attr title  "queue length, vector"
vector 190  CAIN.eNodeB1.x2ppp[0].ppp  txState:vector  ETV
attr interpolationmode  sample-hold
attr title  "tx state, vector"
vector 231  CAIN.ueD2DTx[0].nic.phy  servingCell:vector  ETV
attr source  servingCell
attr title  "ID of the serving eNodeB for the UE, vector"
attr unit  ""
vector 263  CAIN.ueD2DTx[1].nic.phy  servingCell:vector  ETV
attr source  servingCell
attr title  "ID of the serving eNodeB for the UE, vector"
attr unit  ""
vector 295  CAIN.ueD2DTx[2].nic.phy  servingCell:vector  ETV
attr source  servingCell
attr title  "ID of the serving eNodeB for the UE, vector"
attr unit  ""
vector 327  CAIN.ueD2DTx[3].nic.phy  servingCell:vector  ETV
attr source  servingCell
attr title  "ID of the serving eNodeB for the UE, vector"
attr unit  ""
vector 359  CAIN.ueD2DTx[4].nic.phy  servingCell:vector  ETV
attr source  servingCell
attr title  "ID of the serving eNodeB for the UE, vector"
attr unit  ""
vector 391  CAIN.ueD2DTx[5].nic.phy  servingCell:vector  ETV
attr source  servingCell
attr title  "ID of the serving eNodeB for the UE, vector"
attr unit  ""
vector 423  CAIN.ueD2DTx[6].nic.phy  servingCell:vector  ETV
attr source  servingCell
attr title  "ID of the serving eNodeB for the UE, vector"
attr unit  ""
vector 455  CAIN.ueD2DTx[7].nic.phy  servingCell:vector  ETV
attr source  servingCell
attr title  "ID of the serving eNodeB for the UE, vector"
attr unit  ""
vector 487  CAIN.ueD2DTx[8].nic.phy  servingCell:vector  ETV
attr source  servingCell
attr title  "ID of the serving eNodeB for the UE, vector"
attr unit  ""
vector 519  CAIN.ueD2DTx[9].nic.phy  servingCell:vector  ETV
attr source  servingCell
attr title  "ID of the serving eNodeB for the UE, vector"
attr unit  ""
vector 551  CAIN.ueD2DTx[10].nic.phy  servingCell:vector  ETV
attr source  servingCell
attr title  "ID of the serving eNodeB for the UE, vector"
attr unit  ""
vector 583  CAIN.ueD2DTx[11].nic.phy  servingCell:vector  ETV
attr source  servingCell
attr title  "ID of the serving eNodeB for the UE, vector"
attr unit  ""
vector 615  CAIN.ueD2DTx[12].nic.phy  servingCell:vector  ETV
attr source  servingCell
attr title  "ID of the serving eNodeB for the UE, vector"
attr unit  ""
vector 647  CAIN.ueD2DTx[13].nic.phy  servingCell:vector  ETV
attr source  servingCell
attr title  "ID of the serving eNodeB for the UE, vector"
attr unit  ""
vector 679  CAIN.ueD2DTx[14].nic.phy  servingCell:vector  ETV
attr source  servingCell
attr title  "ID of the serving eNodeB for the UE, vector"
attr unit  ""
vector 711  CAIN.ueD2DTx[15].nic.phy  servingCell:vector  ETV
attr source  servingCell
attr title  "ID of the serving eNodeB for the UE, vector"
attr unit  ""
vector 743  CAIN.ueD2DTx[16].nic.phy  servingCell:vector  ETV
attr source  servingCell
attr title  "ID of the serving eNodeB for the UE, vector"
attr unit  ""
vector 775  CAIN.ueD2DTx[17].nic.phy  servingCell:vector  ETV
attr source  servingCell
attr title  "ID of the serving eNodeB for the UE, vector"
attr unit  ""
vector 807  CAIN.ueD2DTx[18].nic.phy  servingCell:vector  ETV
attr source  servingCell
attr title  "ID of the serving eNodeB for the UE, vector"
attr unit  ""
vector 839  CAIN.ueD2DTx[19].nic.phy  servingCell:vector  ETV
attr source  servingCell
attr title  "ID of the serving eNodeB for the UE, vector"
attr unit  ""
vector 871  CAIN.ueD2DTx[20].nic.phy  servingCell:vector  ETV
attr source  servingCell
attr title  "ID of the serving eNodeB for the UE, vector"
attr unit  ""
vector 903  CAIN.ueD2DTx[21].nic.phy  servingCell:vector  ETV
attr source  servingCell
attr title  "ID of the serving eNodeB for the UE, vector"
attr unit  ""
vector 935  CAIN.ueD2DTx[22].nic.phy  servingCell:vector  ETV
attr source  servingCell
attr title  "ID of the serving eNodeB for the UE, vector"
attr unit  ""
vector 967  CAIN.ueD2DTx[23].nic.phy  servingCell:vector  ETV
attr source  servingCell
attr title  "ID of the serving eNodeB for the UE, vector"
attr unit  ""
vector 999  CAIN.ueD2DTx[24].nic.phy  servingCell:vector  ETV
attr source  servingCell
attr title  "ID of the serving eNodeB for the UE, vector"
attr unit  ""
vector 1031  CAIN.ueD2DTx[25].nic.phy  servingCell:vector  ETV
attr source  servingCell
attr title  "ID of the serving eNodeB for the UE, vector"
attr unit  ""
vector 1063  CAIN.ueD2DTx[26].nic.phy  servingCell:vector  ETV
attr source  servingCell
attr title  "ID of the serving eNodeB for the UE, vector"
attr unit  ""
vector 1095  CAIN.ueD2DTx[27].nic.phy  servingCell:vector  ETV
attr source  servingCell
attr title  "ID of the serving eNodeB for the UE, vector"
attr unit  ""
vector 1127  CAIN.ueD2DTx[28].nic.phy  servingCell:vector  ETV
attr source  servingCell
attr title  "ID of the serving eNodeB for the UE, vector"
attr unit  ""
vector 1159  CAIN.ueD2DTx[29].nic.phy  servingCell:vector  ETV
attr source  servingCell
attr title  "ID of the serving eNodeB for the UE, vector"
attr unit  ""
vector 1183  CAIN.eNodeB.sctp  "Throughput of Association 3"  ETV
vector 1205  CAIN.eNodeB1.sctp  "Throughput of Association 4"  ETV
vector 1227  CAIN.eNodeB.sctp  "Throughput of Association 1"  ETV
vector 1247  CAIN.eNodeB.sctp  "Fast Recovery State 1:10.0.5.2"  ETV
vector 1276  CAIN.eNodeB1.sctp  "Throughput of Association 2"  ETV
vector 1296  CAIN.eNodeB1.sctp  "Fast Recovery State 2:10.0.5.1"  ETV
vector 128  CAIN.eNodeB.x2ppp[0].queue  rcvdPk:vector(packetBytes)  ETV
attr interpolationmode  none
attr title  "received packets, vector(packetBytes)"
vector 130  CAIN.eNodeB.x2ppp[0].queue  queueingTime:vector  ETV
attr interpolationmode  none
attr title  "queueing time, vector"
vector 186  CAIN.eNodeB1.x2ppp[0].queue  rcvdPk:vector(packetBytes)  ETV
attr interpolationmode  none
attr title  "received packets, vector(packetBytes)"
vector 188  CAIN.eNodeB1.x2ppp[0].queue  queueingTime:vector  ETV
attr interpolationmode  none
attr title  "queueing time, vector"
vector 137  CAIN.eNodeB.x2ppp[0].ppp  rcvdPkFromHL:vector(packetBytes)  ETV
attr interpolationmode  none
attr source  packetReceivedFromUpper
attr title  "packets received from higher layer, vector(packetBytes)"
vector 133  CAIN.eNodeB.x2ppp[0].ppp  txPk:vector(packetBytes)  ETV
attr interpolationmode  none
attr source  packetSentToLower
attr title  "packets transmitted, vector(packetBytes)"
vector 195  CAIN.eNodeB1.x2ppp[0].ppp  rcvdPkFromHL:vector(packetBytes)  ETV
attr interpolationmode  none
attr source  packetReceivedFromUpper
attr title  "packets received from higher layer, vector(packetBytes)"
vector 191  CAIN.eNodeB1.x2ppp[0].ppp  txPk:vector(packetBytes)  ETV
attr interpolationmode  none
attr source  packetSentToLower
attr title  "packets transmitted, vector(packetBytes)"
vector 192  CAIN.eNodeB1.x2ppp[0].ppp  rxPkOk:vector(packetBytes)  ETV
attr interpolationmode  none
attr source  rxPkOk
attr title  "packets received OK, vector(packetBytes)"
vector 196  CAIN.eNodeB1.x2ppp[0].ppp  passedUpPk:vector(packetBytes)  ETV
attr interpolationmode  none
attr source  packetSentToUpper
attr title  "packets passed to higher layer, vector(packetBytes)"
vector 134  CAIN.eNodeB.x2ppp[0].ppp  rxPkOk:vector(packetBytes)  ETV
attr interpolationmode  none
attr source  rxPkOk
attr title  "packets received OK, vector(packetBytes)"
vector 138  CAIN.eNodeB.x2ppp[0].ppp  passedUpPk:vector(packetBytes)  ETV
attr interpolationmode  none
attr source  packetSentToUpper
attr title  "packets passed to higher layer, vector(packetBytes)"
vector 1325  CAIN.eNodeB1.sctp  "Throughput of Association 4"  ETV
vector 1202  CAIN.eNodeB1.sctp  "Peer Rwnd 4"  ETV
vector 1345  CAIN.eNodeB1.sctp  "Fast Recovery State 5:10.0.4.1"  ETV
vector 1372  CAIN.eNodeB1.sctp  "Fast Recovery State 5:10.0.2.2"  ETV
vector 1399  CAIN.eNodeB1.sctp  "Fast Recovery State 5:10.0.5.1"  ETV
vector 1428  CAIN.eNodeB.sctp  "Throughput of Association 3"  ETV
vector 1180  CAIN.eNodeB.sctp  "Peer Rwnd 3"  ETV
vector 1448  CAIN.eNodeB.sctp  "Fast Recovery State 6:10.0.4.2"  ETV
vector 1475  CAIN.eNodeB.sctp  "Fast Recovery State 6:10.0.3.2"  ETV
vector 1502  CAIN.eNodeB.sctp  "Fast Recovery State 6:10.0.5.2"  ETV
vector 1224  CAIN.eNodeB.sctp  "Peer Rwnd 1"  ETV
vector 1529  CAIN.eNodeB.sctp  "Fast Recovery State 1:10.0.4.2"  ETV
vector 1556  CAIN.eNodeB.sctp  "Fast Recovery State 1:10.0.3.2"  ETV
vector 1273  CAIN.eNodeB1.sctp  "Peer Rwnd 2"  ETV
vector 1583  CAIN.eNodeB1.sctp  "Fast Recovery State 2:10.0.4.1"  ETV
vector 1610  CAIN.eNodeB1.sctp  "Fast Recovery State 2:10.0.2.2"  ETV
vector 1355  CAIN.eNodeB1.sctp  "Slow Start Threshold 5:10.0.2.2"  ETV
vector 1356  CAIN.eNodeB1.sctp  "Congestion Window 5:10.0.2.2"  ETV
vector 1357  CAIN.eNodeB1.sctp  "Bandwidth 5:10.0.2.2"  ETV
vector 1360  CAIN.eNodeB1.sctp  "HB Sent 5:10.0.2.2"  ETV
vector 1353  CAIN.eNodeB1.sctp  "RTO 5:10.0.2.2"  ETV
vector 1328  CAIN.eNodeB1.sctp  "Slow Start Threshold 5:10.0.4.1"  ETV
vector 1329  CAIN.eNodeB1.sctp  "Congestion Window 5:10.0.4.1"  ETV
vector 1330  CAIN.eNodeB1.sctp  "Bandwidth 5:10.0.4.1"  ETV
vector 1333  CAIN.eNodeB1.sctp  "HB Sent 5:10.0.4.1"  ETV
vector 1326  CAIN.eNodeB1.sctp  "RTO 5:10.0.4.1"  ETV
vector 1382  CAIN.eNodeB1.sctp  "Slow Start Threshold 5:10.0.5.1"  ETV
vector 1383  CAIN.eNodeB1.sctp  "Congestion Window 5:10.0.5.1"  ETV
vector 1384  CAIN.eNodeB1.sctp  "Bandwidth 5:10.0.5.1"  ETV
vector 1380  CAIN.eNodeB1.sctp  "RTO 5:10.0.5.1"  ETV
vector 1458  CAIN.eNodeB.sctp  "Slow Start Threshold 6:10.0.3.2"  ETV
vector 1459  CAIN.eNodeB.sctp  "Congestion Window 6:10.0.3.2"  ETV
vector 1460  CAIN.eNodeB.sctp  "Bandwidth 6:10.0.3.2"  ETV
vector 1463  CAIN.eNodeB.sctp  "HB Sent 6:10.0.3.2"  ETV
vector 1456  CAIN.eNodeB.sctp  "RTO 6:10.0.3.2"  ETV
vector 1431  CAIN.eNodeB.sctp  "Slow Start Threshold 6:10.0.4.2"  ETV
vector 1432  CAIN.eNodeB.sctp  "Congestion Window 6:10.0.4.2"  ETV
vector 1433  CAIN.eNodeB.sctp  "Bandwidth 6:10.0.4.2"  ETV
vector 1436  CAIN.eNodeB.sctp  "HB Sent 6:10.0.4.2"  ETV
vector 1429  CAIN.eNodeB.sctp  "RTO 6:10.0.4.2"  ETV
vector 1485  CAIN.eNodeB.sctp  "Slow Start Threshold 6:10.0.5.2"  ETV
vector 1486  CAIN.eNodeB.sctp  "Congestion Window 6:10.0.5.2"  ETV
vector 1487  CAIN.eNodeB.sctp  "Bandwidth 6:10.0.5.2"  ETV
vector 1483  CAIN.eNodeB.sctp  "RTO 6:10.0.5.2"  ETV
vector 1236  CAIN.eNodeB.sctp  "HB ACK Sent 1:10.0.5.2"  ETV
vector 1237  CAIN.eNodeB.sctp  "HB Received 1:10.0.5.2"  ETV
vector 1285  CAIN.eNodeB1.sctp  "HB ACK Sent 2:10.0.5.1"  ETV
vector 1286  CAIN.eNodeB1.sctp  "HB Received 2:10.0.5.1"  ETV
vector 1539  CAIN.eNodeB.sctp  "Slow Start Threshold 1:10.0.3.2"  ETV
vector 1540  CAIN.eNodeB.sctp  "Congestion Window 1:10.0.3.2"  ETV
vector 1541  CAIN.eNodeB.sctp  "Bandwidth 1:10.0.3.2"  ETV
vector 1544  CAIN.eNodeB.sctp  "HB Sent 1:10.0.3.2"  ETV
vector 1537  CAIN.eNodeB.sctp  "RTO 1:10.0.3.2"  ETV
vector 1512  CAIN.eNodeB.sctp  "Slow Start Threshold 1:10.0.4.2"  ETV
vector 1513  CAIN.eNodeB.sctp  "Congestion Window 1:10.0.4.2"  ETV
vector 1514  CAIN.eNodeB.sctp  "Bandwidth 1:10.0.4.2"  ETV
vector 1517  CAIN.eNodeB.sctp  "HB Sent 1:10.0.4.2"  ETV
vector 1510  CAIN.eNodeB.sctp  "RTO 1:10.0.4.2"  ETV
vector 1230  CAIN.eNodeB.sctp  "Slow Start Threshold 1:10.0.5.2"  ETV
vector 1231  CAIN.eNodeB.sctp  "Congestion Window 1:10.0.5.2"  ETV
vector 1232  CAIN.eNodeB.sctp  "Bandwidth 1:10.0.5.2"  ETV
vector 1228  CAIN.eNodeB.sctp  "RTO 1:10.0.5.2"  ETV
vector 1593  CAIN.eNodeB1.sctp  "Slow Start Threshold 2:10.0.2.2"  ETV
vector 1594  CAIN.eNodeB1.sctp  "Congestion Window 2:10.0.2.2"  ETV
vector 1595  CAIN.eNodeB1.sctp  "Bandwidth 2:10.0.2.2"  ETV
vector 1598  CAIN.eNodeB1.sctp  "HB Sent 2:10.0.2.2"  ETV
vector 1591  CAIN.eNodeB1.sctp  "RTO 2:10.0.2.2"  ETV
vector 1566  CAIN.eNodeB1.sctp  "Slow Start Threshold 2:10.0.4.1"  ETV
vector 1567  CAIN.eNodeB1.sctp  "Congestion Window 2:10.0.4.1"  ETV
vector 1568  CAIN.eNodeB1.sctp  "Bandwidth 2:10.0.4.1"  ETV
vector 1571  CAIN.eNodeB1.sctp  "HB Sent 2:10.0.4.1"  ETV
vector 1564  CAIN.eNodeB1.sctp  "RTO 2:10.0.4.1"  ETV
vector 1279  CAIN.eNodeB1.sctp  "Slow Start Threshold 2:10.0.5.1"  ETV
vector 1280  CAIN.eNodeB1.sctp  "Congestion Window 2:10.0.5.1"  ETV
vector 1281  CAIN.eNodeB1.sctp  "Bandwidth 2:10.0.5.1"  ETV
vector 1277  CAIN.eNodeB1.sctp  "RTO 2:10.0.5.1"  ETV
vector 1493  CAIN.eNodeB.sctp  "HB ACK Received 6:10.0.5.2"  ETV
vector 1484  CAIN.eNodeB.sctp  "RTT 6:10.0.5.2"  ETV
vector 1390  CAIN.eNodeB1.sctp  "HB ACK Received 5:10.0.5.1"  ETV
vector 1381  CAIN.eNodeB1.sctp  "RTT 5:10.0.5.1"  ETV
vector 1491  CAIN.eNodeB.sctp  "HB ACK Sent 6:10.0.5.2"  ETV
vector 1492  CAIN.eNodeB.sctp  "HB Received 6:10.0.5.2"  ETV
vector 1388  CAIN.eNodeB1.sctp  "HB ACK Sent 5:10.0.5.1"  ETV
vector 1389  CAIN.eNodeB1.sctp  "HB Received 5:10.0.5.1"  ETV
vector 1287  CAIN.eNodeB1.sctp  "HB ACK Received 2:10.0.5.1"  ETV
vector 1278  CAIN.eNodeB1.sctp  "RTT 2:10.0.5.1"  ETV
vector 1238  CAIN.eNodeB.sctp  "HB ACK Received 1:10.0.5.2"  ETV
vector 1229  CAIN.eNodeB.sctp  "RTT 1:10.0.5.2"  ETV
vector 96  CAIN.eNodeB.nic.mac  receivedPacketFromLowerLayer:vector(packetBytes)  ETV
attr interpolationmode  none
attr source  receivedPacketFromLowerLayer
vector 1625  CAIN.eNodeB.sctp  "SendQueue of Association 6"  ETV
vector 1488  CAIN.eNodeB.sctp  "TSN Sent 6:10.0.5.2"  ETV
vector 1495  CAIN.eNodeB.sctp  "Outstanding Bytes 6:10.0.5.2"  ETV
vector 1168  CAIN.eNodeB.sctp  "Outstanding Bytes 3:Total"  ETV
vector 1494  CAIN.eNodeB.sctp  "Queued Sent Bytes 6:10.0.5.2"  ETV
vector 1167  CAIN.eNodeB.sctp  "Queued Sent Bytes 3:Total"  ETV
vector 1283  CAIN.eNodeB1.sctp  "TSN Received 2:10.0.5.1"  ETV
vector 1259  CAIN.eNodeB1.sctp  "Queued Received Bytes 2:Total"  ETV
vector 1255  CAIN.eNodeB1.sctp  "Advertised Receiver Window 2"  ETV
vector 1264  CAIN.eNodeB1.sctp  "Number of Total Gap Blocks Stored 2"  ETV
vector 1265  CAIN.eNodeB1.sctp  "Number of Revokable Gap Blocks Stored 2"  ETV
vector 1266  CAIN.eNodeB1.sctp  "Number of Non-Revokable Gap Blocks Stored 2"  ETV
vector 1267  CAIN.eNodeB1.sctp  "Number of Duplicate TSNs Stored 2"  ETV
vector 1271  CAIN.eNodeB1.sctp  "Length of SACK Sent 2"  ETV
vector 1268  CAIN.eNodeB1.sctp  "Number of Revokable Gap Blocks Sent 2"  ETV
vector 1269  CAIN.eNodeB1.sctp  "Number of Non-Revokable Gap Blocks Sent 2"  ETV
vector 1270  CAIN.eNodeB1.sctp  "Number of Duplicate TSNs Sent 2"  ETV
vector 1275  CAIN.eNodeB1.sctp  "End to End Delay of Association 2"  ETV
vector 199  CAIN.eNodeB1.x2App[0].client  rcvdPk:vector(packetBytes)  ETV
attr interpolationmode  none
attr source  rcvdPk
attr title  "packets received, vector(packetBytes)"
vector 1624  CAIN.eNodeB.sctp  "Number of Gap Blocks in Last SACK of Association 6"  ETV
vector 1169  CAIN.eNodeB.sctp  "Number of Revokable Gap Blocks in SACK 3"  ETV
vector 1170  CAIN.eNodeB.sctp  "Number of Non-Revokable Gap Blocks in SACK 3"  ETV
vector 1505  CAIN.eNodeB.sctp  "TSN Acked CumAck 6:10.0.5.2"  ETV
vector 1471  CAIN.eNodeB.sctp  "Number of Gap Acked Chunks in Last SACK 6:10.0.3.2"  ETV
vector 1472  CAIN.eNodeB.sctp  "Number of Non-Revokable Gap Acked Chunks in Last SACK 6:10.0.3.2"  ETV
vector 1473  CAIN.eNodeB.sctp  "Number of Gap Missed Chunks in Last SACK 6:10.0.3.2"  ETV
vector 1444  CAIN.eNodeB.sctp  "Number of Gap Acked Chunks in Last SACK 6:10.0.4.2"  ETV
vector 1445  CAIN.eNodeB.sctp  "Number of Non-Revokable Gap Acked Chunks in Last SACK 6:10.0.4.2"  ETV
vector 1446  CAIN.eNodeB.sctp  "Number of Gap Missed Chunks in Last SACK 6:10.0.4.2"  ETV
vector 1498  CAIN.eNodeB.sctp  "Number of Gap Acked Chunks in Last SACK 6:10.0.5.2"  ETV
vector 1499  CAIN.eNodeB.sctp  "Number of Non-Revokable Gap Acked Chunks in Last SACK 6:10.0.5.2"  ETV
vector 1500  CAIN.eNodeB.sctp  "Number of Gap Missed Chunks in Last SACK 6:10.0.5.2"  ETV
vector 1179  CAIN.eNodeB.sctp  "Arwnd in Last SACK 3"  ETV
vector 1507  CAIN.eNodeB.sctp  "TSN PseudoCumAck 6:10.0.5.2"  ETV
vector 1508  CAIN.eNodeB.sctp  "TSN RTXPseudoCumAck 6:10.0.5.2"  ETV
vector 1501  CAIN.eNodeB.sctp  "Partial Bytes Acked 6:10.0.5.2"  ETV
vector 1653  CAIN.ueD2DTx[28].tcp  tcpRcvQueueBytes  ETV
vector 1640  CAIN.ueD2DTx[28].tcp  "advertised window"  ETV
vector 1639  CAIN.ueD2DTx[28].tcp  "receive window"  ETV
vector 1642  CAIN.ueD2DTx[28].tcp  "sent ack"  ETV
vector 1101  CAIN.ueD2DTx[28].nic.pdcpRrc  receivedPacketFromUpperLayer:vector(packetBytes)  ETV
attr interpolationmode  none
attr source  receivedPacketFromUpperLayer
vector 1104  CAIN.ueD2DTx[28].nic.pdcpRrc  sentPacketToLowerLayer:vector(packetBytes)  ETV
attr interpolationmode  none
attr source  sentPacketToLowerLayer
vector 1105  CAIN.ueD2DTx[28].nic.mac  receivedPacketFromUpperLayer:vector(packetBytes)  ETV
attr interpolationmode  none
attr source  receivedPacketFromUpperLayer
vector 1108  CAIN.ueD2DTx[28].nic.mac  sentPacketToLowerLayer:vector(packetBytes)  ETV
attr interpolationmode  none
attr source  sentPacketToLowerLayer
vector 111  CAIN.eNodeB.nic.mac  racpkt:vector  ETV
attr interpolationmode  none
attr title  "eNB received racpkt message, vector"
vector 112  CAIN.eNodeB.nic.mac  racDistanceSignal:vector  ETV
attr interpolationmode  none
attr title  "Rac distance to enb, vector"
vector 113  CAIN.eNodeB.nic.mac  racServedDevsSignal:vector  ETV
attr interpolationmode  none
attr title  "# of devices served on rac arriavall, vector"
vector 98  CAIN.eNodeB.nic.mac  sentPacketToLowerLayer:vector(packetBytes)  ETV
attr interpolationmode  none
attr source  sentPacketToLowerLayer
vector 1106  CAIN.ueD2DTx[28].nic.mac  receivedPacketFromLowerLayer:vector(packetBytes)  ETV
attr interpolationmode  none
attr source  receivedPacketFromLowerLayer
vector 1677  CAIN.ueD2DTx[20].tcp  tcpRcvQueueBytes  ETV
vector 1664  CAIN.ueD2DTx[20].tcp  "advertised window"  ETV
vector 1663  CAIN.ueD2DTx[20].tcp  "receive window"  ETV
vector 1666  CAIN.ueD2DTx[20].tcp  "sent ack"  ETV
vector 845  CAIN.ueD2DTx[20].nic.pdcpRrc  receivedPacketFromUpperLayer:vector(packetBytes)  ETV
attr interpolationmode  none
attr source  receivedPacketFromUpperLayer
vector 848  CAIN.ueD2DTx[20].nic.pdcpRrc  sentPacketToLowerLayer:vector(packetBytes)  ETV
attr interpolationmode  none
attr source  sentPacketToLowerLayer
vector 849  CAIN.ueD2DTx[20].nic.mac  receivedPacketFromUpperLayer:vector(packetBytes)  ETV
attr interpolationmode  none
attr source  receivedPacketFromUpperLayer
vector 859  CAIN.ueD2DTx[20].nic.mac  CainHopMessageSent:vector  ETV
attr interpolationmode  none
attr title  "# of Sent CAIN hop message, vector"
vector 852  CAIN.ueD2DTx[20].nic.mac  sentPacketToLowerLayer:vector(packetBytes)  ETV
attr interpolationmode  none
attr source  sentPacketToLowerLayer
vector 1107  CAIN.ueD2DTx[28].nic.mac  sentPacketToUpperLayer:vector(packetBytes)  ETV
attr interpolationmode  none
attr source  sentPacketToUpperLayer
vector 338  CAIN.ueD2DTx[4].nic.mac  receivedPacketFromLowerLayer:vector(packetBytes)  ETV
attr interpolationmode  none
attr source  receivedPacketFromLowerLayer
vector 340  CAIN.ueD2DTx[4].nic.mac  sentPacketToLowerLayer:vector(packetBytes)  ETV
attr interpolationmode  none
attr source  sentPacketToLowerLayer
vector 594  CAIN.ueD2DTx[12].nic.mac  receivedPacketFromLowerLayer:vector(packetBytes)  ETV
attr interpolationmode  none
attr source  receivedPacketFromLowerLayer
vector 596  CAIN.ueD2DTx[12].nic.mac  sentPacketToLowerLayer:vector(packetBytes)  ETV
attr interpolationmode  none
attr source  sentPacketToLowerLayer
vector 1701  CAIN.ueD2DTx[12].tcp  tcpRcvQueueBytes  ETV
vector 1688  CAIN.ueD2DTx[12].tcp  "advertised window"  ETV
vector 1687  CAIN.ueD2DTx[12].tcp  "receive window"  ETV
vector 1690  CAIN.ueD2DTx[12].tcp  "sent ack"  ETV
vector 589  CAIN.ueD2DTx[12].nic.pdcpRrc  receivedPacketFromUpperLayer:vector(packetBytes)  ETV
attr interpolationmode  none
attr source  receivedPacketFromUpperLayer
vector 592  CAIN.ueD2DTx[12].nic.pdcpRrc  sentPacketToLowerLayer:vector(packetBytes)  ETV
attr interpolationmode  none
attr source  sentPacketToLowerLayer
vector 593  CAIN.ueD2DTx[12].nic.mac  receivedPacketFromUpperLayer:vector(packetBytes)  ETV
attr interpolationmode  none
attr source  receivedPacketFromUpperLayer
vector 106  CAIN.eNodeB.nic.mac  DistanceSignal:vector  ETV
attr interpolationmode  none
attr title  "Distance to enb, vector"
vector 101  CAIN.eNodeB.nic.mac  CainHopMessage:vector  ETV
attr interpolationmode  none
attr title  "eNB received CAIN hop message, vector"
vector 601  CAIN.ueD2DTx[12].nic.mac  DropedHopMessage:vector  ETV
attr interpolationmode  none
attr title  "Droped Hop CAIN message due to RB not available, vector"
vector 1725  CAIN.ueD2DTx[23].tcp  tcpRcvQueueBytes  ETV
vector 1712  CAIN.ueD2DTx[23].tcp  "advertised window"  ETV
vector 1711  CAIN.ueD2DTx[23].tcp  "receive window"  ETV
vector 1714  CAIN.ueD2DTx[23].tcp  "sent ack"  ETV
vector 941  CAIN.ueD2DTx[23].nic.pdcpRrc  receivedPacketFromUpperLayer:vector(packetBytes)  ETV
attr interpolationmode  none
attr source  receivedPacketFromUpperLayer
vector 944  CAIN.ueD2DTx[23].nic.pdcpRrc  sentPacketToLowerLayer:vector(packetBytes)  ETV
attr interpolationmode  none
attr source  sentPacketToLowerLayer
vector 945  CAIN.ueD2DTx[23].nic.mac  receivedPacketFromUpperLayer:vector(packetBytes)  ETV
attr interpolationmode  none
attr source  receivedPacketFromUpperLayer
vector 1749  CAIN.ueD2DTx[10].tcp  tcpRcvQueueBytes  ETV
vector 1736  CAIN.ueD2DTx[10].tcp  "advertised window"  ETV
vector 1735  CAIN.ueD2DTx[10].tcp  "receive window"  ETV
vector 1738  CAIN.ueD2DTx[10].tcp  "sent ack"  ETV
vector 525  CAIN.ueD2DTx[10].nic.pdcpRrc  receivedPacketFromUpperLayer:vector(packetBytes)  ETV
attr interpolationmode  none
attr source  receivedPacketFromUpperLayer
vector 528  CAIN.ueD2DTx[10].nic.pdcpRrc  sentPacketToLowerLayer:vector(packetBytes)  ETV
attr interpolationmode  none
attr source  sentPacketToLowerLayer
vector 529  CAIN.ueD2DTx[10].nic.mac  receivedPacketFromUpperLayer:vector(packetBytes)  ETV
attr interpolationmode  none
attr source  receivedPacketFromUpperLayer
vector 539  CAIN.ueD2DTx[10].nic.mac  CainHopMessageSent:vector  ETV
attr interpolationmode  none
attr title  "# of Sent CAIN hop message, vector"
vector 532  CAIN.ueD2DTx[10].nic.mac  sentPacketToLowerLayer:vector(packetBytes)  ETV
attr interpolationmode  none
attr source  sentPacketToLowerLayer
vector 948  CAIN.ueD2DTx[23].nic.mac  sentPacketToLowerLayer:vector(packetBytes)  ETV
attr interpolationmode  none
attr source  sentPacketToLowerLayer
vector 1773  CAIN.ueD2DTx[22].tcp  tcpRcvQueueBytes  ETV
vector 1760  CAIN.ueD2DTx[22].tcp  "advertised window"  ETV
vector 1759  CAIN.ueD2DTx[22].tcp  "receive window"  ETV
vector 1762  CAIN.ueD2DTx[22].tcp  "sent ack"  ETV
vector 909  CAIN.ueD2DTx[22].nic.pdcpRrc  receivedPacketFromUpperLayer:vector(packetBytes)  ETV
attr interpolationmode  none
attr source  receivedPacketFromUpperLayer
vector 912  CAIN.ueD2DTx[22].nic.pdcpRrc  sentPacketToLowerLayer:vector(packetBytes)  ETV
attr interpolationmode  none
attr source  sentPacketToLowerLayer
vector 913  CAIN.ueD2DTx[22].nic.mac  receivedPacketFromUpperLayer:vector(packetBytes)  ETV
attr interpolationmode  none
attr source  receivedPacketFromUpperLayer
vector 595  CAIN.ueD2DTx[12].nic.mac  sentPacketToUpperLayer:vector(packetBytes)  ETV
attr interpolationmode  none
attr source  sentPacketToUpperLayer
vector 923  CAIN.ueD2DTx[22].nic.mac  CainHopMessageSent:vector  ETV
attr interpolationmode  none
attr title  "# of Sent CAIN hop message, vector"
vector 916  CAIN.ueD2DTx[22].nic.mac  sentPacketToLowerLayer:vector(packetBytes)  ETV
attr interpolationmode  none
attr source  sentPacketToLowerLayer
vector 466  CAIN.ueD2DTx[8].nic.mac  receivedPacketFromLowerLayer:vector(packetBytes)  ETV
attr interpolationmode  none
attr source  receivedPacketFromLowerLayer
vector 468  CAIN.ueD2DTx[8].nic.mac  sentPacketToLowerLayer:vector(packetBytes)  ETV
attr interpolationmode  none
attr source  sentPacketToLowerLayer
vector 1042  CAIN.ueD2DTx[26].nic.mac  receivedPacketFromLowerLayer:vector(packetBytes)  ETV
attr interpolationmode  none
attr source  receivedPacketFromLowerLayer
vector 1044  CAIN.ueD2DTx[26].nic.mac  sentPacketToLowerLayer:vector(packetBytes)  ETV
attr interpolationmode  none
attr source  sentPacketToLowerLayer
vector 946  CAIN.ueD2DTx[23].nic.mac  receivedPacketFromLowerLayer:vector(packetBytes)  ETV
attr interpolationmode  none
attr source  receivedPacketFromLowerLayer
vector 1797  CAIN.ueD2DTx[3].tcp  tcpRcvQueueBytes  ETV
vector 1784  CAIN.ueD2DTx[3].tcp  "advertised window"  ETV
vector 1783  CAIN.ueD2DTx[3].tcp  "receive window"  ETV
vector 1786  CAIN.ueD2DTx[3].tcp  "sent ack"  ETV
vector 301  CAIN.ueD2DTx[3].nic.pdcpRrc  receivedPacketFromUpperLayer:vector(packetBytes)  ETV
attr interpolationmode  none
attr source  receivedPacketFromUpperLayer
vector 304  CAIN.ueD2DTx[3].nic.pdcpRrc  sentPacketToLowerLayer:vector(packetBytes)  ETV
attr interpolationmode  none
attr source  sentPacketToLowerLayer
vector 305  CAIN.ueD2DTx[3].nic.mac  receivedPacketFromUpperLayer:vector(packetBytes)  ETV
attr interpolationmode  none
attr source  receivedPacketFromUpperLayer
vector 315  CAIN.ueD2DTx[3].nic.mac  CainHopMessageSent:vector  ETV
attr interpolationmode  none
attr title  "# of Sent CAIN hop message, vector"
vector 308  CAIN.ueD2DTx[3].nic.mac  sentPacketToLowerLayer:vector(packetBytes)  ETV
attr interpolationmode  none
attr source  sentPacketToLowerLayer
vector 947  CAIN.ueD2DTx[23].nic.mac  sentPacketToUpperLayer:vector(packetBytes)  ETV
attr interpolationmode  none
attr source  sentPacketToUpperLayer
vector 1049  CAIN.ueD2DTx[26].nic.mac  DropedHopMessage:vector  ETV
attr interpolationmode  none
attr title  "Droped Hop CAIN message due to RB not available, vector"
vector 109  CAIN.eNodeB.nic.mac  ServedHopDevs:vector  ETV
attr interpolationmode  none
attr title  "# of devices served on hop forwarding, vector"
vector 1821  CAIN.ueD2DTx[19].tcp  tcpRcvQueueBytes  ETV
vector 1808  CAIN.ueD2DTx[19].tcp  "advertised window"  ETV
vector 1807  CAIN.ueD2DTx[19].tcp  "receive window"  ETV
vector 1810  CAIN.ueD2DTx[19].tcp  "sent ack"  ETV
vector 813  CAIN.ueD2DTx[19].nic.pdcpRrc  receivedPacketFromUpperLayer:vector(packetBytes)  ETV
attr interpolationmode  none
attr source  receivedPacketFromUpperLayer
vector 816  CAIN.ueD2DTx[19].nic.pdcpRrc  sentPacketToLowerLayer:vector(packetBytes)  ETV
attr interpolationmode  none
attr source  sentPacketToLowerLayer
vector 817  CAIN.ueD2DTx[19].nic.mac  receivedPacketFromUpperLayer:vector(packetBytes)  ETV
attr interpolationmode  none
attr source  receivedPacketFromUpperLayer
vector 827  CAIN.ueD2DTx[19].nic.mac  CainHopMessageSent:vector  ETV
attr interpolationmode  none
attr title  "# of Sent CAIN hop message, vector"
vector 820  CAIN.ueD2DTx[19].nic.mac  sentPacketToLowerLayer:vector(packetBytes)  ETV
attr interpolationmode  none
attr source  sentPacketToLowerLayer
vector 1845  CAIN.ueD2DTx[16].tcp  tcpRcvQueueBytes  ETV
vector 1832  CAIN.ueD2DTx[16].tcp  "advertised window"  ETV
vector 1831  CAIN.ueD2DTx[16].tcp  "receive window"  ETV
vector 1834  CAIN.ueD2DTx[16].tcp  "sent ack"  ETV
vector 717  CAIN.ueD2DTx[16].nic.pdcpRrc  receivedPacketFromUpperLayer:vector(packetBytes)  ETV
attr interpolationmode  none
attr source  receivedPacketFromUpperLayer
vector 720  CAIN.ueD2DTx[16].nic.pdcpRrc  sentPacketToLowerLayer:vector(packetBytes)  ETV
attr interpolationmode  none
attr source  sentPacketToLowerLayer
vector 721  CAIN.ueD2DTx[16].nic.mac  receivedPacketFromUpperLayer:vector(packetBytes)  ETV
attr interpolationmode  none
attr source  receivedPacketFromUpperLayer
vector 731  CAIN.ueD2DTx[16].nic.mac  CainHopMessageSent:vector  ETV
attr interpolationmode  none
attr title  "# of Sent CAIN hop message, vector"
vector 724  CAIN.ueD2DTx[16].nic.mac  sentPacketToLowerLayer:vector(packetBytes)  ETV
attr interpolationmode  none
attr source  sentPacketToLowerLayer
vector 1869  CAIN.ueD2DTx[27].tcp  tcpRcvQueueBytes  ETV
vector 1856  CAIN.ueD2DTx[27].tcp  "advertised window"  ETV
vector 1855  CAIN.ueD2DTx[27].tcp  "receive window"  ETV
vector 1858  CAIN.ueD2DTx[27].tcp  "sent ack"  ETV
vector 1069  CAIN.ueD2DTx[27].nic.pdcpRrc  receivedPacketFromUpperLayer:vector(packetBytes)  ETV
attr interpolationmode  none
attr source  receivedPacketFromUpperLayer
vector 1072  CAIN.ueD2DTx[27].nic.pdcpRrc  sentPacketToLowerLayer:vector(packetBytes)  ETV
attr interpolationmode  none
attr source  sentPacketToLowerLayer
vector 1073  CAIN.ueD2DTx[27].nic.mac  receivedPacketFromUpperLayer:vector(packetBytes)  ETV
attr interpolationmode  none
attr source  receivedPacketFromUpperLayer
vector 1083  CAIN.ueD2DTx[27].nic.mac  CainHopMessageSent:vector  ETV
attr interpolationmode  none
attr title  "# of Sent CAIN hop message, vector"
vector 1076  CAIN.ueD2DTx[27].nic.mac  sentPacketToLowerLayer:vector(packetBytes)  ETV
attr interpolationmode  none
attr source  sentPacketToLowerLayer
vector 1893  CAIN.ueD2DTx[24].tcp  tcpRcvQueueBytes  ETV
vector 1880  CAIN.ueD2DTx[24].tcp  "advertised window"  ETV
vector 1879  CAIN.ueD2DTx[24].tcp  "receive window"  ETV
vector 1882  CAIN.ueD2DTx[24].tcp  "sent ack"  ETV
vector 973  CAIN.ueD2DTx[24].nic.pdcpRrc  receivedPacketFromUpperLayer:vector(packetBytes)  ETV
attr interpolationmode  none
attr source  receivedPacketFromUpperLayer
vector 976  CAIN.ueD2DTx[24].nic.pdcpRrc  sentPacketToLowerLayer:vector(packetBytes)  ETV
attr interpolationmode  none
attr source  sentPacketToLowerLayer
vector 977  CAIN.ueD2DTx[24].nic.mac  receivedPacketFromUpperLayer:vector(packetBytes)  ETV
attr interpolationmode  none
attr source  receivedPacketFromUpperLayer
vector 987  CAIN.ueD2DTx[24].nic.mac  CainHopMessageSent:vector  ETV
attr interpolationmode  none
attr title  "# of Sent CAIN hop message, vector"
vector 980  CAIN.ueD2DTx[24].nic.mac  sentPacketToLowerLayer:vector(packetBytes)  ETV
attr interpolationmode  none
attr source  sentPacketToLowerLayer
vector 1917  CAIN.ueD2DTx[5].tcp  tcpRcvQueueBytes  ETV
vector 1904  CAIN.ueD2DTx[5].tcp  "advertised window"  ETV
vector 1903  CAIN.ueD2DTx[5].tcp  "receive window"  ETV
vector 1906  CAIN.ueD2DTx[5].tcp  "sent ack"  ETV
vector 365  CAIN.ueD2DTx[5].nic.pdcpRrc  receivedPacketFromUpperLayer:vector(packetBytes)  ETV
attr interpolationmode  none
attr source  receivedPacketFromUpperLayer
vector 368  CAIN.ueD2DTx[5].nic.pdcpRrc  sentPacketToLowerLayer:vector(packetBytes)  ETV
attr interpolationmode  none
attr source  sentPacketToLowerLayer
vector 369  CAIN.ueD2DTx[5].nic.mac  receivedPacketFromUpperLayer:vector(packetBytes)  ETV
attr interpolationmode  none
attr source  receivedPacketFromUpperLayer
vector 379  CAIN.ueD2DTx[5].nic.mac  CainHopMessageSent:vector  ETV
attr interpolationmode  none
attr title  "# of Sent CAIN hop message, vector"
vector 372  CAIN.ueD2DTx[5].nic.mac  sentPacketToLowerLayer:vector(packetBytes)  ETV
attr interpolationmode  none
attr source  sentPacketToLowerLayer
vector 1941  CAIN.ueD2DTx[13].tcp  tcpRcvQueueBytes  ETV
vector 1928  CAIN.ueD2DTx[13].tcp  "advertised window"  ETV
vector 1927  CAIN.ueD2DTx[13].tcp  "receive window"  ETV
vector 1930  CAIN.ueD2DTx[13].tcp  "sent ack"  ETV
vector 621  CAIN.ueD2DTx[13].nic.pdcpRrc  receivedPacketFromUpperLayer:vector(packetBytes)  ETV
attr interpolationmode  none
attr source  receivedPacketFromUpperLayer
vector 624  CAIN.ueD2DTx[13].nic.pdcpRrc  sentPacketToLowerLayer:vector(packetBytes)  ETV
attr interpolationmode  none
attr source  sentPacketToLowerLayer
vector 625  CAIN.ueD2DTx[13].nic.mac  receivedPacketFromUpperLayer:vector(packetBytes)  ETV
attr interpolationmode  none
attr source  receivedPacketFromUpperLayer
vector 635  CAIN.ueD2DTx[13].nic.mac  CainHopMessageSent:vector  ETV
attr interpolationmode  none
attr title  "# of Sent CAIN hop message, vector"
vector 628  CAIN.ueD2DTx[13].nic.mac  sentPacketToLowerLayer:vector(packetBytes)  ETV
attr interpolationmode  none
attr source  sentPacketToLowerLayer
vector 1965  CAIN.ueD2DTx[11].tcp  tcpRcvQueueBytes  ETV
vector 1952  CAIN.ueD2DTx[11].tcp  "advertised window"  ETV
vector 1951  CAIN.ueD2DTx[11].tcp  "receive window"  ETV
vector 1954  CAIN.ueD2DTx[11].tcp  "sent ack"  ETV
vector 557  CAIN.ueD2DTx[11].nic.pdcpRrc  receivedPacketFromUpperLayer:vector(packetBytes)  ETV
attr interpolationmode  none
attr source  receivedPacketFromUpperLayer
vector 560  CAIN.ueD2DTx[11].nic.pdcpRrc  sentPacketToLowerLayer:vector(packetBytes)  ETV
attr interpolationmode  none
attr source  sentPacketToLowerLayer
vector 561  CAIN.ueD2DTx[11].nic.mac  receivedPacketFromUpperLayer:vector(packetBytes)  ETV
attr interpolationmode  none
attr source  receivedPacketFromUpperLayer
vector 1989  CAIN.ueD2DTx[8].tcp  tcpRcvQueueBytes  ETV
vector 1976  CAIN.ueD2DTx[8].tcp  "advertised window"  ETV
vector 1975  CAIN.ueD2DTx[8].tcp  "receive window"  ETV
vector 1978  CAIN.ueD2DTx[8].tcp  "sent ack"  ETV
vector 461  CAIN.ueD2DTx[8].nic.pdcpRrc  receivedPacketFromUpperLayer:vector(packetBytes)  ETV
attr interpolationmode  none
attr source  receivedPacketFromUpperLayer
vector 464  CAIN.ueD2DTx[8].nic.pdcpRrc  sentPacketToLowerLayer:vector(packetBytes)  ETV
attr interpolationmode  none
attr source  sentPacketToLowerLayer
vector 465  CAIN.ueD2DTx[8].nic.mac  receivedPacketFromUpperLayer:vector(packetBytes)  ETV
attr interpolationmode  none
attr source  receivedPacketFromUpperLayer
vector 474  CAIN.ueD2DTx[8].nic.mac  CainMessageSent:vector  ETV
attr interpolationmode  none
attr title  "# of Sent CAIN message, vector"
vector 571  CAIN.ueD2DTx[11].nic.mac  CainHopMessageSent:vector  ETV
attr interpolationmode  none
attr title  "# of Sent CAIN hop message, vector"
vector 564  CAIN.ueD2DTx[11].nic.mac  sentPacketToLowerLayer:vector(packetBytes)  ETV
attr interpolationmode  none
attr source  sentPacketToLowerLayer
vector 2013  CAIN.ueD2DTx[26].tcp  tcpRcvQueueBytes  ETV
vector 2000  CAIN.ueD2DTx[26].tcp  "advertised window"  ETV
vector 1999  CAIN.ueD2DTx[26].tcp  "receive window"  ETV
vector 2002  CAIN.ueD2DTx[26].tcp  "sent ack"  ETV
vector 1037  CAIN.ueD2DTx[26].nic.pdcpRrc  receivedPacketFromUpperLayer:vector(packetBytes)  ETV
attr interpolationmode  none
attr source  receivedPacketFromUpperLayer
vector 1040  CAIN.ueD2DTx[26].nic.pdcpRrc  sentPacketToLowerLayer:vector(packetBytes)  ETV
attr interpolationmode  none
attr source  sentPacketToLowerLayer
vector 1041  CAIN.ueD2DTx[26].nic.mac  receivedPacketFromUpperLayer:vector(packetBytes)  ETV
attr interpolationmode  none
attr source  receivedPacketFromUpperLayer
vector 2037  CAIN.ueD2DTx[14].tcp  tcpRcvQueueBytes  ETV
vector 2024  CAIN.ueD2DTx[14].tcp  "advertised window"  ETV
vector 2023  CAIN.ueD2DTx[14].tcp  "receive window"  ETV
vector 2026  CAIN.ueD2DTx[14].tcp  "sent ack"  ETV
vector 653  CAIN.ueD2DTx[14].nic.pdcpRrc  receivedPacketFromUpperLayer:vector(packetBytes)  ETV
attr interpolationmode  none
attr source  receivedPacketFromUpperLayer
vector 656  CAIN.ueD2DTx[14].nic.pdcpRrc  sentPacketToLowerLayer:vector(packetBytes)  ETV
attr interpolationmode  none
attr source  sentPacketToLowerLayer
vector 657  CAIN.ueD2DTx[14].nic.mac  receivedPacketFromUpperLayer:vector(packetBytes)  ETV
attr interpolationmode  none
attr source  receivedPacketFromUpperLayer
vector 667  CAIN.ueD2DTx[14].nic.mac  CainHopMessageSent:vector  ETV
attr interpolationmode  none
attr title  "# of Sent CAIN hop message, vector"
vector 660  CAIN.ueD2DTx[14].nic.mac  sentPacketToLowerLayer:vector(packetBytes)  ETV
attr interpolationmode  none
attr source  sentPacketToLowerLayer
vector 100  CAIN.eNodeB.nic.mac  CainMessage:vector  ETV
attr interpolationmode  none
attr title  "eNB received CAIN message, vector"
vector 1621  CAIN.eNodeB1.sctp  "SendQueue of Association 5"  ETV
vector 1385  CAIN.eNodeB1.sctp  "TSN Sent 5:10.0.5.1"  ETV
vector 1392  CAIN.eNodeB1.sctp  "Outstanding Bytes 5:10.0.5.1"  ETV
vector 1190  CAIN.eNodeB1.sctp  "Outstanding Bytes 4:Total"  ETV
vector 1391  CAIN.eNodeB1.sctp  "Queued Sent Bytes 5:10.0.5.1"  ETV
vector 1189  CAIN.eNodeB1.sctp  "Queued Sent Bytes 4:Total"  ETV
vector 1048  CAIN.ueD2DTx[26].nic.mac  DropedCainMessage:vector  ETV
attr interpolationmode  none
attr title  "Droped CAIN message due to RB not available, vector"
vector 1234  CAIN.eNodeB.sctp  "TSN Received 1:10.0.5.2"  ETV
vector 1210  CAIN.eNodeB.sctp  "Queued Received Bytes 1:Total"  ETV
vector 1206  CAIN.eNodeB.sctp  "Advertised Receiver Window 1"  ETV
vector 1215  CAIN.eNodeB.sctp  "Number of Total Gap Blocks Stored 1"  ETV
vector 1216  CAIN.eNodeB.sctp  "Number of Revokable Gap Blocks Stored 1"  ETV
vector 1217  CAIN.eNodeB.sctp  "Number of Non-Revokable Gap Blocks Stored 1"  ETV
vector 1218  CAIN.eNodeB.sctp  "Number of Duplicate TSNs Stored 1"  ETV
vector 1222  CAIN.eNodeB.sctp  "Length of SACK Sent 1"  ETV
vector 1219  CAIN.eNodeB.sctp  "Number of Revokable Gap Blocks Sent 1"  ETV
vector 1220  CAIN.eNodeB.sctp  "Number of Non-Revokable Gap Blocks Sent 1"  ETV
vector 1221  CAIN.eNodeB.sctp  "Number of Duplicate TSNs Sent 1"  ETV
vector 1226  CAIN.eNodeB.sctp  "End to End Delay of Association 1"  ETV
vector 141  CAIN.eNodeB.x2App[0].client  rcvdPk:vector(packetBytes)  ETV
attr interpolationmode  none
attr source  rcvdPk
attr title  "packets received, vector(packetBytes)"
vector 1620  CAIN.eNodeB1.sctp  "Number of Gap Blocks in Last SACK of Association 5"  ETV
vector 1191  CAIN.eNodeB1.sctp  "Number of Revokable Gap Blocks in SACK 4"  ETV
vector 1192  CAIN.eNodeB1.sctp  "Number of Non-Revokable Gap Blocks in SACK 4"  ETV
vector 1402  CAIN.eNodeB1.sctp  "TSN Acked CumAck 5:10.0.5.1"  ETV
vector 1368  CAIN.eNodeB1.sctp  "Number of Gap Acked Chunks in Last SACK 5:10.0.2.2"  ETV
vector 1369  CAIN.eNodeB1.sctp  "Number of Non-Revokable Gap Acked Chunks in Last SACK 5:10.0.2.2"  ETV
vector 1370  CAIN.eNodeB1.sctp  "Number of Gap Missed Chunks in Last SACK 5:10.0.2.2"  ETV
vector 1341  CAIN.eNodeB1.sctp  "Number of Gap Acked Chunks in Last SACK 5:10.0.4.1"  ETV
vector 1342  CAIN.eNodeB1.sctp  "Number of Non-Revokable Gap Acked Chunks in Last SACK 5:10.0.4.1"  ETV
vector 1343  CAIN.eNodeB1.sctp  "Number of Gap Missed Chunks in Last SACK 5:10.0.4.1"  ETV
vector 1395  CAIN.eNodeB1.sctp  "Number of Gap Acked Chunks in Last SACK 5:10.0.5.1"  ETV
vector 1396  CAIN.eNodeB1.sctp  "Number of Non-Revokable Gap Acked Chunks in Last SACK 5:10.0.5.1"  ETV
vector 1397  CAIN.eNodeB1.sctp  "Number of Gap Missed Chunks in Last SACK 5:10.0.5.1"  ETV
vector 1201  CAIN.eNodeB1.sctp  "Arwnd in Last SACK 4"  ETV
vector 1404  CAIN.eNodeB1.sctp  "TSN PseudoCumAck 5:10.0.5.1"  ETV
vector 1405  CAIN.eNodeB1.sctp  "TSN RTXPseudoCumAck 5:10.0.5.1"  ETV
vector 1398  CAIN.eNodeB1.sctp  "Partial Bytes Acked 5:10.0.5.1"  ETV
vector 2061  CAIN.ueD2DTx[7].tcp  tcpRcvQueueBytes  ETV
vector 2048  CAIN.ueD2DTx[7].tcp  "advertised window"  ETV
vector 2047  CAIN.ueD2DTx[7].tcp  "receive window"  ETV
vector 2050  CAIN.ueD2DTx[7].tcp  "sent ack"  ETV
vector 429  CAIN.ueD2DTx[7].nic.pdcpRrc  receivedPacketFromUpperLayer:vector(packetBytes)  ETV
attr interpolationmode  none
attr source  receivedPacketFromUpperLayer
vector 432  CAIN.ueD2DTx[7].nic.pdcpRrc  sentPacketToLowerLayer:vector(packetBytes)  ETV
attr interpolationmode  none
attr source  sentPacketToLowerLayer
vector 433  CAIN.ueD2DTx[7].nic.mac  receivedPacketFromUpperLayer:vector(packetBytes)  ETV
attr interpolationmode  none
attr source  receivedPacketFromUpperLayer
vector 443  CAIN.ueD2DTx[7].nic.mac  CainHopMessageSent:vector  ETV
attr interpolationmode  none
attr title  "# of Sent CAIN hop message, vector"
vector 436  CAIN.ueD2DTx[7].nic.mac  sentPacketToLowerLayer:vector(packetBytes)  ETV
attr interpolationmode  none
attr source  sentPacketToLowerLayer
vector 2085  CAIN.ueD2DTx[2].tcp  tcpRcvQueueBytes  ETV
vector 2072  CAIN.ueD2DTx[2].tcp  "advertised window"  ETV
vector 2071  CAIN.ueD2DTx[2].tcp  "receive window"  ETV
vector 2074  CAIN.ueD2DTx[2].tcp  "sent ack"  ETV
vector 269  CAIN.ueD2DTx[2].nic.pdcpRrc  receivedPacketFromUpperLayer:vector(packetBytes)  ETV
attr interpolationmode  none
attr source  receivedPacketFromUpperLayer
vector 272  CAIN.ueD2DTx[2].nic.pdcpRrc  sentPacketToLowerLayer:vector(packetBytes)  ETV
attr interpolationmode  none
attr source  sentPacketToLowerLayer
vector 273  CAIN.ueD2DTx[2].nic.mac  receivedPacketFromUpperLayer:vector(packetBytes)  ETV
attr interpolationmode  none
attr source  receivedPacketFromUpperLayer
vector 283  CAIN.ueD2DTx[2].nic.mac  CainHopMessageSent:vector  ETV
attr interpolationmode  none
attr title  "# of Sent CAIN hop message, vector"
vector 276  CAIN.ueD2DTx[2].nic.mac  sentPacketToLowerLayer:vector(packetBytes)  ETV
attr interpolationmode  none
attr source  sentPacketToLowerLayer
vector 154  CAIN.eNodeB1.nic.mac  receivedPacketFromLowerLayer:vector(packetBytes)  ETV
attr interpolationmode  none
attr source  receivedPacketFromLowerLayer
vector 2109  CAIN.ueD2DTx[25].tcp  tcpRcvQueueBytes  ETV
vector 2096  CAIN.ueD2DTx[25].tcp  "advertised window"  ETV
vector 2095  CAIN.ueD2DTx[25].tcp  "receive window"  ETV
vector 2098  CAIN.ueD2DTx[25].tcp  "sent ack"  ETV
vector 1005  CAIN.ueD2DTx[25].nic.pdcpRrc  receivedPacketFromUpperLayer:vector(packetBytes)  ETV
attr interpolationmode  none
attr source  receivedPacketFromUpperLayer
vector 1008  CAIN.ueD2DTx[25].nic.pdcpRrc  sentPacketToLowerLayer:vector(packetBytes)  ETV
attr interpolationmode  none
attr source  sentPacketToLowerLayer
vector 1009  CAIN.ueD2DTx[25].nic.mac  receivedPacketFromUpperLayer:vector(packetBytes)  ETV
attr interpolationmode  none
attr source  receivedPacketFromUpperLayer
vector 2133  CAIN.ueD2DTx[1].tcp  tcpRcvQueueBytes  ETV
vector 2120  CAIN.ueD2DTx[1].tcp  "advertised window"  ETV
vector 2119  CAIN.ueD2DTx[1].tcp  "receive window"  ETV
vector 2122  CAIN.ueD2DTx[1].tcp  "sent ack"  ETV
vector 237  CAIN.ueD2DTx[1].nic.pdcpRrc  receivedPacketFromUpperLayer:vector(packetBytes)  ETV
attr interpolationmode  none
attr source  receivedPacketFromUpperLayer
vector 240  CAIN.ueD2DTx[1].nic.pdcpRrc  sentPacketToLowerLayer:vector(packetBytes)  ETV
attr interpolationmode  none
attr source  sentPacketToLowerLayer
vector 241  CAIN.ueD2DTx[1].nic.mac  receivedPacketFromUpperLayer:vector(packetBytes)  ETV
attr interpolationmode  none
attr source  receivedPacketFromUpperLayer
vector 250  CAIN.ueD2DTx[1].nic.mac  CainMessageSent:vector  ETV
attr interpolationmode  none
attr title  "# of Sent CAIN message, vector"
vector 244  CAIN.ueD2DTx[1].nic.mac  sentPacketToLowerLayer:vector(packetBytes)  ETV
attr interpolationmode  none
attr source  sentPacketToLowerLayer
vector 1019  CAIN.ueD2DTx[25].nic.mac  CainHopMessageSent:vector  ETV
attr interpolationmode  none
attr title  "# of Sent CAIN hop message, vector"
vector 1012  CAIN.ueD2DTx[25].nic.mac  sentPacketToLowerLayer:vector(packetBytes)  ETV
attr interpolationmode  none
attr source  sentPacketToLowerLayer
vector 914  CAIN.ueD2DTx[22].nic.mac  receivedPacketFromLowerLayer:vector(packetBytes)  ETV
attr interpolationmode  none
attr source  receivedPacketFromLowerLayer
vector 530  CAIN.ueD2DTx[10].nic.mac  receivedPacketFromLowerLayer:vector(packetBytes)  ETV
attr interpolationmode  none
attr source  receivedPacketFromLowerLayer
vector 2157  CAIN.ueD2DTx[17].tcp  tcpRcvQueueBytes  ETV
vector 2144  CAIN.ueD2DTx[17].tcp  "advertised window"  ETV
vector 2143  CAIN.ueD2DTx[17].tcp  "receive window"  ETV
vector 2146  CAIN.ueD2DTx[17].tcp  "sent ack"  ETV
vector 749  CAIN.ueD2DTx[17].nic.pdcpRrc  receivedPacketFromUpperLayer:vector(packetBytes)  ETV
attr interpolationmode  none
attr source  receivedPacketFromUpperLayer
vector 752  CAIN.ueD2DTx[17].nic.pdcpRrc  sentPacketToLowerLayer:vector(packetBytes)  ETV
attr interpolationmode  none
attr source  sentPacketToLowerLayer
vector 753  CAIN.ueD2DTx[17].nic.mac  receivedPacketFromUpperLayer:vector(packetBytes)  ETV
attr interpolationmode  none
attr source  receivedPacketFromUpperLayer
vector 274  CAIN.ueD2DTx[2].nic.mac  receivedPacketFromLowerLayer:vector(packetBytes)  ETV
attr interpolationmode  none
attr source  receivedPacketFromLowerLayer
vector 2181  CAIN.ueD2DTx[6].tcp  tcpRcvQueueBytes  ETV
vector 2168  CAIN.ueD2DTx[6].tcp  "advertised window"  ETV
vector 2167  CAIN.ueD2DTx[6].tcp  "receive window"  ETV
vector 2170  CAIN.ueD2DTx[6].tcp  "sent ack"  ETV
vector 397  CAIN.ueD2DTx[6].nic.pdcpRrc  receivedPacketFromUpperLayer:vector(packetBytes)  ETV
attr interpolationmode  none
attr source  receivedPacketFromUpperLayer
vector 400  CAIN.ueD2DTx[6].nic.pdcpRrc  sentPacketToLowerLayer:vector(packetBytes)  ETV
attr interpolationmode  none
attr source  sentPacketToLowerLayer
vector 401  CAIN.ueD2DTx[6].nic.mac  receivedPacketFromUpperLayer:vector(packetBytes)  ETV
attr interpolationmode  none
attr source  receivedPacketFromUpperLayer
vector 404  CAIN.ueD2DTx[6].nic.mac  sentPacketToLowerLayer:vector(packetBytes)  ETV
attr interpolationmode  none
attr source  sentPacketToLowerLayer
vector 169  CAIN.eNodeB1.nic.mac  racpkt:vector  ETV
attr interpolationmode  none
attr title  "eNB received racpkt message, vector"
vector 170  CAIN.eNodeB1.nic.mac  racDistanceSignal:vector  ETV
attr interpolationmode  none
attr title  "Rac distance to enb, vector"
vector 171  CAIN.eNodeB1.nic.mac  racServedDevsSignal:vector  ETV
attr interpolationmode  none
attr title  "# of devices served on rac arriavall, vector"
vector 156  CAIN.eNodeB1.nic.mac  sentPacketToLowerLayer:vector(packetBytes)  ETV
attr interpolationmode  none
attr source  sentPacketToLowerLayer
vector 2205  CAIN.ueD2DTx[21].tcp  tcpRcvQueueBytes  ETV
vector 2192  CAIN.ueD2DTx[21].tcp  "advertised window"  ETV
vector 2191  CAIN.ueD2DTx[21].tcp  "receive window"  ETV
vector 2194  CAIN.ueD2DTx[21].tcp  "sent ack"  ETV
vector 877  CAIN.ueD2DTx[21].nic.pdcpRrc  receivedPacketFromUpperLayer:vector(packetBytes)  ETV
attr interpolationmode  none
attr source  receivedPacketFromUpperLayer
vector 880  CAIN.ueD2DTx[21].nic.pdcpRrc  sentPacketToLowerLayer:vector(packetBytes)  ETV
attr interpolationmode  none
attr source  sentPacketToLowerLayer
vector 881  CAIN.ueD2DTx[21].nic.mac  receivedPacketFromUpperLayer:vector(packetBytes)  ETV
attr interpolationmode  none
attr source  receivedPacketFromUpperLayer
vector 891  CAIN.ueD2DTx[21].nic.mac  CainHopMessageSent:vector  ETV
attr interpolationmode  none
attr title  "# of Sent CAIN hop message, vector"
vector 884  CAIN.ueD2DTx[21].nic.mac  sentPacketToLowerLayer:vector(packetBytes)  ETV
attr interpolationmode  none
attr source  sentPacketToLowerLayer
vector 402  CAIN.ueD2DTx[6].nic.mac  receivedPacketFromLowerLayer:vector(packetBytes)  ETV
attr interpolationmode  none
attr source  receivedPacketFromLowerLayer
vector 2229  CAIN.ueD2DTx[9].tcp  tcpRcvQueueBytes  ETV
vector 2216  CAIN.ueD2DTx[9].tcp  "advertised window"  ETV
vector 2215  CAIN.ueD2DTx[9].tcp  "receive window"  ETV
vector 2218  CAIN.ueD2DTx[9].tcp  "sent ack"  ETV
vector 493  CAIN.ueD2DTx[9].nic.pdcpRrc  receivedPacketFromUpperLayer:vector(packetBytes)  ETV
attr interpolationmode  none
attr source  receivedPacketFromUpperLayer
vector 496  CAIN.ueD2DTx[9].nic.pdcpRrc  sentPacketToLowerLayer:vector(packetBytes)  ETV
attr interpolationmode  none
attr source  sentPacketToLowerLayer
vector 497  CAIN.ueD2DTx[9].nic.mac  receivedPacketFromUpperLayer:vector(packetBytes)  ETV
attr interpolationmode  none
attr source  receivedPacketFromUpperLayer
vector 507  CAIN.ueD2DTx[9].nic.mac  CainHopMessageSent:vector  ETV
attr interpolationmode  none
attr title  "# of Sent CAIN hop message, vector"
vector 500  CAIN.ueD2DTx[9].nic.mac  sentPacketToLowerLayer:vector(packetBytes)  ETV
attr interpolationmode  none
attr source  sentPacketToLowerLayer
vector 2253  CAIN.ueD2DTx[4].tcp  tcpRcvQueueBytes  ETV
vector 2240  CAIN.ueD2DTx[4].tcp  "advertised window"  ETV
vector 2239  CAIN.ueD2DTx[4].tcp  "receive window"  ETV
vector 2242  CAIN.ueD2DTx[4].tcp  "sent ack"  ETV
vector 333  CAIN.ueD2DTx[4].nic.pdcpRrc  receivedPacketFromUpperLayer:vector(packetBytes)  ETV
attr interpolationmode  none
attr source  receivedPacketFromUpperLayer
vector 336  CAIN.ueD2DTx[4].nic.pdcpRrc  sentPacketToLowerLayer:vector(packetBytes)  ETV
attr interpolationmode  none
attr source  sentPacketToLowerLayer
vector 337  CAIN.ueD2DTx[4].nic.mac  receivedPacketFromUpperLayer:vector(packetBytes)  ETV
attr interpolationmode  none
attr source  receivedPacketFromUpperLayer
vector 346  CAIN.ueD2DTx[4].nic.mac  CainMessageSent:vector  ETV
attr interpolationmode  none
attr title  "# of Sent CAIN message, vector"
vector 1138  CAIN.ueD2DTx[29].nic.mac  receivedPacketFromLowerLayer:vector(packetBytes)  ETV
attr interpolationmode  none
attr source  receivedPacketFromLowerLayer
vector 1140  CAIN.ueD2DTx[29].nic.mac  sentPacketToLowerLayer:vector(packetBytes)  ETV
attr interpolationmode  none
attr source  sentPacketToLowerLayer
vector 690  CAIN.ueD2DTx[15].nic.mac  receivedPacketFromLowerLayer:vector(packetBytes)  ETV
attr interpolationmode  none
attr source  receivedPacketFromLowerLayer
vector 692  CAIN.ueD2DTx[15].nic.mac  sentPacketToLowerLayer:vector(packetBytes)  ETV
attr interpolationmode  none
attr source  sentPacketToLowerLayer
vector 2277  CAIN.ueD2DTx[29].tcp  tcpRcvQueueBytes  ETV
vector 2264  CAIN.ueD2DTx[29].tcp  "advertised window"  ETV
vector 2263  CAIN.ueD2DTx[29].tcp  "receive window"  ETV
vector 2266  CAIN.ueD2DTx[29].tcp  "sent ack"  ETV
vector 1133  CAIN.ueD2DTx[29].nic.pdcpRrc  receivedPacketFromUpperLayer:vector(packetBytes)  ETV
attr interpolationmode  none
attr source  receivedPacketFromUpperLayer
vector 1136  CAIN.ueD2DTx[29].nic.pdcpRrc  sentPacketToLowerLayer:vector(packetBytes)  ETV
attr interpolationmode  none
attr source  sentPacketToLowerLayer
vector 1137  CAIN.ueD2DTx[29].nic.mac  receivedPacketFromUpperLayer:vector(packetBytes)  ETV
attr interpolationmode  none
attr source  receivedPacketFromUpperLayer
vector 1146  CAIN.ueD2DTx[29].nic.mac  CainMessageSent:vector  ETV
attr interpolationmode  none
attr title  "# of Sent CAIN message, vector"
vector 697  CAIN.ueD2DTx[15].nic.mac  DropedHopMessage:vector  ETV
attr interpolationmode  none
attr title  "Droped Hop CAIN message due to RB not available, vector"
vector 108  CAIN.eNodeB.nic.mac  ServedDevs:vector  ETV
attr interpolationmode  none
attr title  "# of devices served on cain forwarding, vector"
vector 2301  CAIN.ueD2DTx[0].tcp  tcpRcvQueueBytes  ETV
vector 2288  CAIN.ueD2DTx[0].tcp  "advertised window"  ETV
vector 2287  CAIN.ueD2DTx[0].tcp  "receive window"  ETV
vector 2290  CAIN.ueD2DTx[0].tcp  "sent ack"  ETV
vector 205  CAIN.ueD2DTx[0].nic.pdcpRrc  receivedPacketFromUpperLayer:vector(packetBytes)  ETV
attr interpolationmode  none
attr source  receivedPacketFromUpperLayer
vector 208  CAIN.ueD2DTx[0].nic.pdcpRrc  sentPacketToLowerLayer:vector(packetBytes)  ETV
attr interpolationmode  none
attr source  sentPacketToLowerLayer
vector 209  CAIN.ueD2DTx[0].nic.mac  receivedPacketFromUpperLayer:vector(packetBytes)  ETV
attr interpolationmode  none
attr source  receivedPacketFromUpperLayer
vector 218  CAIN.ueD2DTx[0].nic.mac  CainMessageSent:vector  ETV
attr interpolationmode  none
attr title  "# of Sent CAIN message, vector"
vector 212  CAIN.ueD2DTx[0].nic.mac  sentPacketToLowerLayer:vector(packetBytes)  ETV
attr interpolationmode  none
attr source  sentPacketToLowerLayer
vector 2325  CAIN.ueD2DTx[15].tcp  tcpRcvQueueBytes  ETV
vector 2312  CAIN.ueD2DTx[15].tcp  "advertised window"  ETV
vector 2311  CAIN.ueD2DTx[15].tcp  "receive window"  ETV
vector 2314  CAIN.ueD2DTx[15].tcp  "sent ack"  ETV
vector 685  CAIN.ueD2DTx[15].nic.pdcpRrc  receivedPacketFromUpperLayer:vector(packetBytes)  ETV
attr interpolationmode  none
attr source  receivedPacketFromUpperLayer
vector 688  CAIN.ueD2DTx[15].nic.pdcpRrc  sentPacketToLowerLayer:vector(packetBytes)  ETV
attr interpolationmode  none
attr source  sentPacketToLowerLayer
vector 689  CAIN.ueD2DTx[15].nic.mac  receivedPacketFromUpperLayer:vector(packetBytes)  ETV
attr interpolationmode  none
attr source  receivedPacketFromUpperLayer
vector 2349  CAIN.ueD2DTx[18].tcp  tcpRcvQueueBytes  ETV
vector 2336  CAIN.ueD2DTx[18].tcp  "advertised window"  ETV
vector 2335  CAIN.ueD2DTx[18].tcp  "receive window"  ETV
vector 2338  CAIN.ueD2DTx[18].tcp  "sent ack"  ETV
vector 781  CAIN.ueD2DTx[18].nic.pdcpRrc  receivedPacketFromUpperLayer:vector(packetBytes)  ETV
attr interpolationmode  none
attr source  receivedPacketFromUpperLayer
vector 784  CAIN.ueD2DTx[18].nic.pdcpRrc  sentPacketToLowerLayer:vector(packetBytes)  ETV
attr interpolationmode  none
attr source  sentPacketToLowerLayer
vector 785  CAIN.ueD2DTx[18].nic.mac  receivedPacketFromUpperLayer:vector(packetBytes)  ETV
attr interpolationmode  none
attr source  receivedPacketFromUpperLayer
vector 795  CAIN.ueD2DTx[18].nic.mac  CainHopMessageSent:vector  ETV
attr interpolationmode  none
attr title  "# of Sent CAIN hop message, vector"
vector 788  CAIN.ueD2DTx[18].nic.mac  sentPacketToLowerLayer:vector(packetBytes)  ETV
attr interpolationmode  none
attr source  sentPacketToLowerLayer
vector 691  CAIN.ueD2DTx[15].nic.mac  sentPacketToUpperLayer:vector(packetBytes)  ETV
attr interpolationmode  none
attr source  sentPacketToUpperLayer
vector 538  CAIN.ueD2DTx[10].nic.mac  CainMessageSent:vector  ETV
attr interpolationmode  none
attr title  "# of Sent CAIN message, vector"
vector 314  CAIN.ueD2DTx[3].nic.mac  CainMessageSent:vector  ETV
attr interpolationmode  none
attr title  "# of Sent CAIN message, vector"
vector 915  CAIN.ueD2DTx[22].nic.mac  sentPacketToUpperLayer:vector(packetBytes)  ETV
attr interpolationmode  none
attr source  sentPacketToUpperLayer
vector 730  CAIN.ueD2DTx[16].nic.mac  CainMessageSent:vector  ETV
attr interpolationmode  none
attr title  "# of Sent CAIN message, vector"
vector 1043  CAIN.ueD2DTx[26].nic.mac  sentPacketToUpperLayer:vector(packetBytes)  ETV
attr interpolationmode  none
attr source  sentPacketToUpperLayer
vector 434  CAIN.ueD2DTx[7].nic.mac  receivedPacketFromLowerLayer:vector(packetBytes)  ETV
attr interpolationmode  none
attr source  receivedPacketFromLowerLayer
vector 435  CAIN.ueD2DTx[7].nic.mac  sentPacketToUpperLayer:vector(packetBytes)  ETV
attr interpolationmode  none
attr source  sentPacketToUpperLayer
vector 275  CAIN.ueD2DTx[2].nic.mac  sentPacketToUpperLayer:vector(packetBytes)  ETV
attr interpolationmode  none
attr source  sentPacketToUpperLayer
vector 763  CAIN.ueD2DTx[17].nic.mac  CainHopMessageSent:vector  ETV
attr interpolationmode  none
attr title  "# of Sent CAIN hop message, vector"
vector 756  CAIN.ueD2DTx[17].nic.mac  sentPacketToLowerLayer:vector(packetBytes)  ETV
attr interpolationmode  none
attr source  sentPacketToLowerLayer
vector 403  CAIN.ueD2DTx[6].nic.mac  sentPacketToUpperLayer:vector(packetBytes)  ETV
attr interpolationmode  none
attr source  sentPacketToUpperLayer
1428	61897 24 200 200 0.0000001228 0.0000001228 1 0 0 0 0
1539	61921 28 285 285 0.0000006304 0.0000006304 1 65535 65535 65535 4294836225
1540	61949 27 285 285 0.0000006304 0.0000006304 1 8940 8940 8940 79923600
1541	61976 29 285 285 0.0000006304 0.0000006304 1 0.3725 0.3725 0.3725 0.13875625
1537	62005 24 285 285 0.0000006304 0.0000006304 1 3 3 3 9
1544	62029 24 285 285 0.0000006304 0.0000006304 1 1 1 1 1
1556	62053 24 213 213 0.0000003096 0.0000003096 1 0 0 0 0
1512	62077 28 285 285 0.0000006304 0.0000006304 1 65535 65535 65535 4294836225
1513	62105 27 285 285 0.0000006304 0.0000006304 1 8940 8940 8940 79923600
1514	62132 29 285 285 0.0000006304 0.0000006304 1 0.3725 0.3725 0.3725 0.13875625
1510	62161 24 285 285 0.0000006304 0.0000006304 1 3 3 3 9
1517	62185 24 285 285 0.0000006304 0.0000006304 1 1 1 1 1
1529	62209 24 213 213 0.0000003096 0.0000003096 1 0 0 0 0
1230	62233 28 285 285 0.0000006304 0.0000006304 1 65535 65535 65535 4294836225
1231	62261 27 285 285 0.0000006304 0.0000006304 1 8940 8940 8940 79923600
1232	62288 29 285 285 0.0000006304 0.0000006304 1 0.3725 0.3725 0.3725 0.13875625
1228	62317 48 285 352 0.0000006304 0.0000008564 2 1 3 4 10
1229	62365 31 352 352 0.0000008564 0.0000008564 1 2.26e-07 2.26e-07 2.26e-07 5.1076e-14
1234	62396 4420 5070 23369 0.0570000972 0.2570028796 153 2000 2152 317628 659694180
1237	66816 46 257 271 0.000000552 0.000000596 2 1 2 3 5
1236	66862 46 257 271 0.000000552 0.000000596 2 1 2 3 5
1238	66908 48 352 358 0.0000008564 0.0000009004 2 1 2 3 5
1247	66956 13 181 181 0 0 1 0 0 0 0
1206	66969 89 5070 41063 0.0570000972 0.4570028796 3 65533 65535 196603 12884246539
1210	67058 4041 5070 41063 0.0570000972 0.4570028796 156 0 272 308 75016
1215	71099 77 5070 41063 0.0570000972 0.4570028796 3 0 0 0 0
1216	71176 77 5070 41063 0.0570000972 0.4570028796 3 0 0 0 0
1217	71253 77 5070 41063 0.0570000972 0.4570028796 3 0 0 0 0
1218	71330 77 5070 41063 0.0570000972 0.4570028796 3 0 0 0 0
1219	71407 77 5070 41063 0.0570000972 0.4570028796 3 0 0 0 0
1220	71484 77 5070 41063 0.0570000972 0.4570028796 3 0 0 0 0
1221	71561 77 5070 41063 0.0570000972 0.4570028796 3 0 0 0 0
1222	71638 80 5070 41063 0.0570000972 0.4570028796 3 16 16 48 768
1224	71718 28 213 213 0.0000003096 0.0000003096 1 65535 65535 65535 4294836225
1226	71746 5320 5073 23506 0.0570000972 0.2570028796 153 9.72e-08 2.2572e-06 0.0003124716 6.9474215952e-10
1227	77066 13 181 181 0 0 1 0 0 0 0
1458	77079 27 228 228 0.000000458 0.000000458 1 65535 65535 65535 4294836225
1459	77106 26 228 228 0.000000458 0.000000458 1 8940 8940 8940 79923600
1460	77132 28 228 228 0.000000458 0.000000458 1 0.3725 0.3725 0.3725 0.13875625
1456	77160 23 228 228 0.000000458 0.000000458 1 3 3 3 9
1463	77183 23 228 228 0.000000458 0.000000458 1 1 1 1 1
1471	77206 76 846 36808 0.0070001912 0.4070029736 3 0 0 0 0
1472	77282 76 846 36808 0.0070001912 0.4070029736 3 0 0 0 0
1473	77358 76 846 36808 0.0070001912 0.4070029736 3 0 0 0 0
1475	77434 24 200 200 0.0000001228 0.0000001228 1 0 0 0 0
1431	77458 27 228 228 0.000000458 0.000000458 1 65535 65535 65535 4294836225
1432	77485 26 228 228 0.000000458 0.000000458 1 8940 8940 8940 79923600
1433	77511 28 228 228 0.000000458 0.000000458 1 0.3725 0.3725 0.3725 0.13875625
1429	77539 23 228 228 0.000000458 0.000000458 1 3 3 3 9
1436	77562 23 228 228 0.000000458 0.000000458 1 1 1 1 1
1444	77585 76 846 36808 0.0070001912 0.4070029736 3 0 0 0 0
1445	77661 76 846 36808 0.0070001912 0.4070029736 3 0 0 0 0
1446	77737 76 846 36808 0.0070001912 0.4070029736 3 0 0 0 0
1448	77813 24 200 200 0.0000001228 0.0000001228 1 0 0 0 0
1485	77837 58 228 104790 0.000000458 1.2070006224 2 65535 65535 131070 8589672450
1486	77895 56 228 104790 0.000000458 1.2070006224 2 8940 8940 17880 159847200
1487	77951 59 228 104790 0.000000458 1.2070006224 2 0.3725 23.84 24.2125 568.48435625
1483	78010 123 228 36808 0.000000458 0.4070029736 5 1 3 7 13
1484	78133 138 305 36808 0.0000006744 0.4070029736 4 1.912e-07 0.2000023512 0.40000319 0.080001112965797
1488	78271 4396 777 18473 0.007 0.2070006224 153 2000 2152 317628 659694180
1492	82667 48 323 337 0.0000007624 0.0000008064 2 1 2 3 5
1491	82715 48 323 337 0.0000007624 0.0000008064 2 1 2 3 5
1493	82763 48 305 315 0.0000006744 0.0000007184 2 1 2 3 5
1494	82811 8372 777 36808 0.007 0.4070029736 306 0 272 37506 6719012
1495	91183 8372 777 36808 0.007 0.4070029736 306 0 272 37506 6719012
1498	99555 76 846 36808 0.0070001912 0.4070029736 3 0 0 0 0
1499	99631 76 846 36808 0.0070001912 0.4070029736 3 0 0 0 0
1500	99707 76 846 36808 0.0070001912 0.4070029736 3 0 0 0 0
1501	99783 76 846 36808 0.0070001912 0.4070029736 3 0 0 0 0
1502	99859 24 200 200 0.0000001228 0.0000001228 1 0 0 0 0
1505	99883 85 846 36808 0.0070001912 0.4070029736 3 2000 2152 6168 12695360
1507	99968 76 846 36808 0.0070001912 0.4070029736 3 0 0 0 0
1508	100044 76 846 36808 0.0070001912 0.4070029736 3 0 0 0 0
1624	100120 76 846 36808 0.0070001912 0.4070029736 3 0 0 0 0
1625	100196 7013 777 18473 0.007 0.2070006224 306 0 136 18753 1679753
1168	107209 8372 777 36808 0.007 0.4070029736 306 0 272 37506 6719012
1167	115581 8372 777 36808 0.007 0.4070029736 306 0 272 37506 6719012
1169	123953 76 846 36808 0.0070001912 0.4070029736 3 0 0 0 0
1170	124029 76 846 36808 0.0070001912 0.4070029736 3 0 0 0 0
1179	124105 88 846 36808 0.0070001912 0.4070029736 3 65533 65535 196603 12884246539
1180	124193 116 200 36808 0.0000001228 0.4070029736 4 65533 65535 262138 17179082764
1183	124309 13 173 173 0 0 1 0 0 0 0
1325	124322 24 199 199 0.0000001228 0.0000001228 1 0 0 0 0
1593	124346 28 286 286 0.0000006304 0.0000006304 1 65535 65535 65535 4294836225
1594	124374 27 286 286 0.0000006304 0.0000006304 1 8940 8940 8940 79923600
1595	124401 29 286 286 0.0000006304 0.0000006304 1 0.3725 0.3725 0.3725 0.13875625
1591	124430 24 286 286 0.0000006304 0.0000006304 1 3 3 3 9
1598	124454 24 286 286 0.0000006304 0.0000006304 1 1 1 1 1
1610	124478 24 214 214 0.0000003096 0.0000003096 1 0 0 0 0
1566	124502 28 286 286 0.0000006304 0.0000006304 1 65535 65535 65535 4294836225
1567	124530 27 286 286 0.0000006304 0.0000006304 1 8940 8940 8940 79923600
1568	124557 29 286 286 0.0000006304 0.0000006304 1 0.3725 0.3725 0.3725 0.13875625
1564	124586 24 286 286 0.0000006304 0.0000006304 1 3 3 3 9
1571	124610 24 286 286 0.0000006304 0.0000006304 1 1 1 1 1
1583	124634 24 214 214 0.0000003096 0.0000003096 1 0 0 0 0
1279	124658 28 286 286 0.0000006304 0.0000006304 1 65535 65535 65535 4294836225
1280	124686 27 286 286 0.0000006304 0.0000006304 1 8940 8940 8940 79923600
1281	124713 29 286 286 0.0000006304 0.0000006304 1 0.3725 0.3725 0.3725 0.13875625
1277	124742 48 286 351 0.0000006304 0.0000008564 2 1 3 4 10
1278	124790 31 351 351 0.0000008564 0.0000008564 1 2.26e-07 2.26e-07 2.26e-07 5.1076e-14
1283	124821 4403 834 18480 0.0070000972 0.2070028796 153 2000 2152 317628 659694180
1286	129224 46 258 272 0.000000552 0.000000596 2 1 2 3 5
1285	129270 46 258 272 0.000000552 0.000000596 2 1 2 3 5
1287	129316 48 351 357 0.0000008564 0.0000009004 2 1 2 3 5
1296	129364 13 182 182 0 0 1 0 0 0 0
1255	129377 88 834 36801 0.0070000972 0.4070028796 3 65533 65535 196603 12884246539
1259	129465 4023 834 36801 0.0070000972 0.4070028796 156 0 272 308 75016
1264	133488 76 834 36801 0.0070000972 0.4070028796 3 0 0 0 0
1265	133564 76 834 36801 0.0070000972 0.4070028796 3 0 0 0 0
1266	133640 76 834 36801 0.0070000972 0.4070028796 3 0 0 0 0
1267	133716 76 834 36801 0.0070000972 0.4070028796 3 0 0 0 0
1268	133792 76 834 36801 0.0070000972 0.4070028796 3 0 0 0 0
1269	133868 76 834 36801 0.0070000972 0.4070028796 3 0 0 0 0
1270	133944 76 834 36801 0.0070000972 0.4070028796 3 0 0 0 0
1271	134020 79 834 36801 0.0070000972 0.4070028796 3 16 16 48 768
1273	134099 28 214 214 0.0000003096 0.0000003096 1 65535 65535 65535 4294836225
1275	134127 5303 837 18617 0.0070000972 0.2070028796 153 9.72e-08 2.2572e-06 0.0003124716 6.9474215952e-10
1276	139430 13 182 182 0 0 1 0 0 0 0
1355	139443 27 227 227 0.000000458 0.000000458 1 65535 65535 65535 4294836225
1356	139470 26 227 227 0.000000458 0.000000458 1 8940 8940 8940 79923600
1357	139496 28 227 227 0.000000458 0.000000458 1 0.3725 0.3725 0.3725 0.13875625
1353	139524 23 227 227 0.000000458 0.000000458 1 3 3 3 9
1360	139547 23 227 227 0.000000458 0.000000458 1 1 1 1 1
1368	139570 77 5082 41070 0.0570001912 0.4570029736 3 0 0 0 0
1369	139647 77 5082 41070 0.0570001912 0.4570029736 3 0 0 0 0
1370	139724 77 5082 41070 0.0570001912 0.4570029736 3 0 0 0 0
1372	139801 24 199 199 0.0000001228 0.0000001228 1 0 0 0 0
1328	139825 27 227 227 0.000000458 0.000000458 1 65535 65535 65535 4294836225
1329	139852 26 227 227 0.000000458 0.000000458 1 8940 8940 8940 79923600
1330	139878 28 227 227 0.000000458 0.000000458 1 0.3725 0.3725 0.3725 0.13875625
1326	139906 23 227 227 0.000000458 0.000000458 1 3 3 3 9
1333	139929 23 227 227 0.000000458 0.000000458 1 1 1 1 1
1341	139952 77 5082 41070 0.0570001912 0.4570029736 3 0 0 0 0
1342	140029 77 5082 41070 0.0570001912 0.4570029736 3 0 0 0 0
1343	140106 77 5082 41070 0.0570001912 0.4570029736 3 0 0 0 0
1345	140183 24 199 199 0.0000001228 0.0000001228 1 0 0 0 0
1382	140207 58 227 109058 0.000000458 1.2570006224 2 65535 65535 131070 8589672450
1383	140265 56 227 109058 0.000000458 1.2570006224 2 8940 8940 17880 159847200
1384	140321 59 227 109058 0.000000458 1.2570006224 2 0.3725 23.84 24.2125 568.48435625
1380	140380 124 227 41070 0.000000458 0.4570029736 5 1 3 7 13
1381	140504 139 306 41070 0.0000006744 0.4570029736 4 1.912e-07 0.2000023512 0.40000319 0.080001112965797
1385	140643 4413 4974 23362 0.057 0.2570006224 153 2000 2152 317628 659694180
1389	145056 48 324 338 0.0000007624 0.0000008064 2 1 2 3 5
1388	145104 48 324 338 0.0000007624 0.0000008064 2 1 2 3 5
1390	145152 48 306 316 0.0000006744 0.0000007184 2 1 2 3 5
1391	145200 8390 4974 41070 0.057 0.4570029736 306 0 272 37506 6719012
1392	153590 8390 4974 41070 0.057 0.4570029736 306 0 272 37506 6719012
1395	161980 77 5082 41070 0.0570001912 0.4570029736 3 0 0 0 0
1396	162057 77 5082 41070 0.0570001912 0.4570029736 3 0 0 0 0
1397	162134 77 5082 41070 0.0570001912 0.4570029736 3 0 0 0 0
1398	162211 77 5082 41070 0.0570001912 0.4570029736 3 0 0 0 0
1399	162288 24 199 199 0.0000001228 0.0000001228 1 0 0 0 0
1402	162312 86 5082 41070 0.0570001912 0.4570029736 3 2000 2152 6168 12695360
1404	162398 77 5082 41070 0.0570001912 0.4570029736 3 0 0 0 0
1405	162475 77 5082 41070 0.0570001912 0.4570029736 3 0 0 0 0
1620	162552 77 5082 41070 0.0570001912 0.4570029736 3 0 0 0 0
1621	162629 7047 4974 23362 0.057 0.2570006224 306 0 136 18753 1679753
1190	169676 8390 4974 41070 0.057 0.4570029736 306 0 272 37506 6719012
1189	178066 8390 4974 41070 0.057 0.4570029736 306 0 272 37506 6719012
1191	186456 77 5082 41070 0.0570001912 0.4570029736 3 0 0 0 0
1192	186533 77 5082 41070 0.0570001912 0.4570029736 3 0 0 0 0
1201	186610 89 5082 41070 0.0570001912 0.4570029736 3 65533 65535 196603 12884246539
1202	186699 117 199 41070 0.0000001228 0.4570029736 4 65533 65535 262138 17179082764
1205	186816 13 178 178 0 0 1 0 0 0 0
8	186829 8 0 0 0 0 1 0 0 0 0
9	186837 8 0 0 0 0 1 0 0 0 0
24	186845 9 0 0 0 0 1 0 0 0 0
25	186854 9 0 0 0 0 1 0 0 0 0
35	186863 9 0 0 0 0 1 0 0 0 0
36	186872 9 0 0 0 0 1 0 0 0 0
56	186881 9 0 0 0 0 1 0 0 0 0
57	186890 9 0 0 0 0 1 0 0 0 0
67	186899 9 0 0 0 0 1 0 0 0 0
68	186908 9 0 0 0 0 1 0 0 0 0
78	186917 9 0 0 0 0 1 0 0 0 0
79	186926 9 0 0 0 0 1 0 0 0 0
96	186935 1051883 458 1011295 0.002 10 59572 0 0 0 0
98	1238818 388525 1405 1011284 0.015 10 22031 0 0 0 0
100	1627343 84741 4893 1011274 0.056 10 3971 1 3971 7886406 20880574286
101	1712084 305163 1766 1011284 0.02 10 13963 1 13963 97489666 907531300794
106	2017247 740920 1766 1011295 0.02 10 35835 378 669 21150898 12977140676
108	2758167 73899 7281 1011288 0.08 10 3969 4 8 28211 207983
109	2832066 274928 2284 1011295 0.027 10 13932 6 22 301946 6550260
111	3106994 847233 1405 1011295 0.015 10 37884 1 37884 717617670 18124391079410
112	3954227 782571 1405 1011295 0.015 10 37884 104 330 9636866 2828383066
113	4736798 706803 1405 1011295 0.015 10 37884 0 0 0 0
120	5443601 10 0 0 0 0 1 0 0 0 0
121	5443611 10 0 0 0 0 1 0 0 0 0
128	5443621 421 189 41065 0 0.4570028796 18 36 2752 4084 7774160
130	5444042 438 189 41065 0 0.4570028796 18 0 8.8e-08 3.088e-07 1.946112e-14
131	5444480 280 0 308 0 0.0000007124 13 0 2 10 14
132	5444760 828 0 41067 0 0.4570029236 37 0 1 18 18
133	5445588 423 191 41066 0 0.4570028796 18 43 2759 4210 7832218
134	5446011 442 196 36806 0.0000001228 0.4070029736 18 43 2759 4210 7832218
137	5446453 423 191 41066 0 0.4570028796 18 36 2752 4084 7774160
138	5446876 442 196 36806 0.0000001228 0.4070029736 18 36 2752 4084 7774160
141	5447318 3808 5075 23777 0.0570000972 0.2570028796 153 2 2 306 612
154	5451126 609178 5520 1011262 0.062 10 32585 0 0 0 0
156	6060304 140752 6380 1011262 0.071 10 7442 0 0 0 0
169	6201056 95339 6380 1011262 0.071 10 4416 1 4416 9752736 28715305696
170	6296395 92030 6380 1011262 0.071 10 4416 288 661 2318738 1338239434
171	6388425 83198 6380 1011262 0.071 10 4416 0 0 0 0
178	6471623 10 0 0 0 0 1 0 0 0 0
179	6471633 10 0 0 0 0 1 0 0 0 0
186	6471643 422 190 36803 0 0.4070028796 18 36 2752 4084 7774160
188	6472065 439 190 36803 0 0.4070028796 18 0 8.8e-08 3.088e-07 1.946112e-14
189	6472504 280 0 307 0 0.0000007124 13 0 2 10 14
190	6472784 830 0 36805 0 0.4070029236 37 0 1 18 18
191	6473614 424 192 36804 0 0.4070028796 18 43 2759 4210 7832218
192	6474038 441 195 41068 0.0000001228 0.4570029736 18 43 2759 4210 7832218
195	6474479 424 192 36804 0 0.4070028796 18 36 2752 4084 7774160
196	6474903 441 195 41068 0.0000001228 0.4570029736 18 36 2752 4084 7774160
199	6475344 3791 839 18888 0.0070000972 0.2070028796 153 2 2 306 612
205	6479135 82 7483 910268 0.08215464002 9.08215464002 3 44 44 132 5808
208	6479217 82 7483 910268 0.08215464002 9.08215464002 3 45 45 135 6075
209	6479299 82 7486 910271 0.08215464002 9.08215464002 3 45 45 135 6075
212	6479381 26333 7489 1010951 0.083 9.998 1385 0 0 0 0
218	6505714 29381 7489 1010951 0.083 9.998 1385 1 1385 959805 886539885
231	6535095 163 0 9672 0 0.105 10 1 2 19 37
237	6535258 85 5932 908379 0.066956260251 9.066956260251 3 44 44 132 5808
240	6535343 85 5932 908379 0.066956260251 9.066956260251 3 45 45 135 6075
241	6535428 85 5935 908382 0.066956260251 9.066956260251 3 45 45 135 6075
244	6535513 26390 5970 1010868 0.067 9.997 1388 0 0 0 0
250	6561903 29447 5970 1010868 0.067 9.997 1388 1 1388 963966 892311194
263	6591350 163 0 9673 0 0.105 10 1 2 19 37
269	6591513 85 5391 907696 0.060918334927 9.060918334927 3 44 44 132 5808
272	6591598 85 5391 907696 0.060918334927 9.060918334927 3 45 45 135 6075
273	6591683 25701 5394 1011215 0.060918334927 10 1391 0 45 135 6075
274	6617384 158487 6273 1011190 0.069 9.999 8335 0 0 0 0
275	6775871 25616 263206 1011211 3.065 10 1388 0 0 0 0
276	6801487 132110 5430 1011190 0.061 9.999 6948 0 0 0 0
283	6933597 17 5430 5430 0.061 0.061 1 1 1 1 1
295	6933614 163 0 9674 0 0.105 10 1 2 19 37
301	6933777 85 2135 903760 0.025952952534 9.025952952534 3 44 44 132 5808
304	6933862 85 2135 903760 0.025952952534 9.025952952534 3 45 45 135 6075
305	6933947 85 2138 903763 0.025952952534 9.025952952534 3 45 45 135 6075
308	6934032 26644 2145 1010762 0.026 9.996 1402 0 0 0 0
314	6960676 29603 259310 1010762 3.026 9.996 1395 1 1395 973710 905874870
315	6990279 119 2145 4814 0.026 0.056 7 1 7 28 140
327	6990398 163 0 9675 0 0.105 10 1 2 19 37
333	6990561 82 6838 909488 0.07505697578 9.07505697578 3 44 44 132 5808
336	6990643 82 6838 909488 0.07505697578 9.07505697578 3 45 45 135 6075
337	6990725 82 6841 909491 0.07505697578 9.07505697578 3 45 45 135 6075
338	6990807 224732 1559 1011259 0.018 10 11955 0 0 0 0
340	7215539 262244 1559 1011259 0.018 10 13940 0 0 0 0
346	7477783 42360 6849 1010764 0.076 9.996 1985 1 1985 1971105 2609085985
359	7520143 10 0 0 0 0 1 1 1 1 1
365	7520153 85 3128 905110 0.037729873816 9.037729873816 3 44 44 132 5808
368	7520238 85 3128 905110 0.037729873816 9.037729873816 3 45 45 135 6075
369	7520323 85 3131 905113 0.037729873816 9.037729873816 3 45 45 135 6075
372	7520408 26555 3139 1010957 0.038 9.998 1397 0 0 0 0
379	7546963 29639 3139 1010957 0.038 9.998 1397 1 1397 976503 909775295
391	7576602 163 0 9676 0 0.105 10 1 2 19 37
397	7576765 85 6287 908774 0.069116189484 9.069116189484 3 44 44 132 5808
400	7576850 85 6287 908774 0.069116189484 9.069116189484 3 45 45 135 6075
401	7576935 4554 6290 1011126 0.069116189484 9.999 237 0 45 186 7236
402	7581489 87520 6479 1011269 0.072 10 4642 0 0 0 0
403	7669009 4467 264244 1011122 3.074 9.999 234 0 0 0 0
404	7673476 82940 6299 1011269 0.07 10 4409 0 0 0 0
423	7756416 163 0 9677 0 0.105 10 1 2 19 37
429	7756579 85 5238 907473 0.058808041334 9.058808041334 3 44 44 132 5808
432	7756664 85 5238 907473 0.058808041334 9.058808041334 3 45 45 135 6075
433	7756749 243 5241 909720 0.058808041334 9.078 11 8 45 241 7553
434	7756992 304 262842 909623 3.061 9.077 16 0 0 0 0
435	7757296 152 263036 909716 3.063 9.078 8 0 0 0 0
436	7757448 169 5251 909226 0.059 9.074 9 0 0 0 0
443	7757617 17 5251 5251 0.059 0.059 1 1 1 1 1
455	7757634 163 0 9678 0 0.105 10 1 2 19 37
461	7757797 82 4534 906880 0.05394782705 9.05394782705 3 44 44 132 5808
464	7757879 82 4534 906880 0.05394782705 9.05394782705 3 45 45 135 6075
465	7757961 82 4537 906883 0.05394782705 9.05394782705 3 45 45 135 6075
466	7758043 472 1992 5595 0.024 0.062 28 0 0 0 0
468	7758515 26920 1992 1011128 0.024 9.999 1419 0 0 0 0
474	7785435 29514 4578 1011128 0.054 9.999 1391 1 1391 968136 898107496
487	7814949 163 0 9679 0 0.105 10 1 2 19 37
493	7815112 85 6708 909388 0.074373740533 9.074373740533 3 44 44 132 5808
496	7815197 85 6708 909388 0.074373740533 9.074373740533 3 45 45 135 6075
497	7815282 85 6711 909391 0.074373740533 9.074373740533 3 45 45 135 6075
500	7815367 36420 6791 1011223 0.075 10 1986 0 0 0 0
507	7851787 41271 6791 1011223 0.075 10 1986 1 1986 1973091 2613030181
519	7893058 10 0 0 0 0 1 1 1 1 1
525	7893068 85 1862 903404 0.022555459228 9.022555459228 3 44 44 132 5808
528	7893153 85 1862 903404 0.022555459228 9.022555459228 3 45 45 135 6075
529	7893238 85 1865 903407 0.022555459228 9.022555459228 3 45 45 135 6075
530	7893323 156990 6140 1011256 0.068 10 8338 0 0 0 0
532	8050313 183653 1878 1011256 0.023 10 9741 0 0 0 0
538	8233966 29625 259028 1010963 3.023 9.998 1396 1 1396 975106 907823686
539	8263591 119 1878 4469 0.023 0.053 7 1 7 28 140
551	8263710 163 0 9680 0 0.105 10 1 2 19 37
557	8263873 85 4526 906873 0.053440309435 9.053440309435 3 44 44 132 5808
560	8263958 85 4526 906873 0.053440309435 9.053440309435 3 45 45 135 6075
561	8264043 85 4529 906876 0.053440309435 9.053440309435 3 45 45 135 6075
564	8264128 26448 4582 1011132 0.054 9.999 1391 0 0 0 0
571	8290576 29514 4582 1011132 0.054 9.999 1391 1 1391 968136 898107496
583	8320090 163 0 9681 0 0.105 10 1 2 19 37
589	8320253 85 1684 903064 0.019660798032 9.019660798032 3 44 44 132 5808
592	8320338 85 1684 903064 0.019660798032 9.019660798032 3 45 45 135 6075
593	8320423 910 1687 911591 0.019660798032 9.094 48 5 45 360 7200
594	8321333 452987 1678 1011203 0.019 9.999 23979 0 0 0 0
595	8774320 825 1964 911587 0.024 9.094 45 0 0 0 0
596	8775145 452121 1678 1011203 0.019 9.999 23933 0 0 0 0
601	9227266 17 1809 1809 0.021 0.021 1 1 1 1 1
615	9227283 10 0 0 0 0 1 1 1 1 1
621	9227293 85 3901 906117 0.046595396413 9.046595396413 3 44 44 132 5808
624	9227378 85 3901 906117 0.046595396413 9.046595396413 3 45 45 135 6075
625	9227463 85 3904 906120 0.046595396413 9.046595396413 3 45 45 135 6075
628	9227548 26483 3921 1010881 0.047 9.997 1393 0 0 0 0
635	9254031 29555 3921 1010881 0.047 9.997 1393 1 1393 970921 901985609
647	9283586 163 0 9682 0 0.105 10 1 2 19 37
653	9283749 85 4804 907136 0.055913616046 9.055913616046 3 44 44 132 5808
656	9283834 85 4804 907136 0.055913616046 9.055913616046 3 45 45 135 6075
657	9283919 85 4807 907139 0.055913616046 9.055913616046 3 45 45 135 6075
660	9284004 26428 4826 1010775 0.056 9.996 1390 0 0 0 0
667	9310432 29491 4826 1010775 0.056 9.996 1390 1 1390 966745 896172615
679	9339923 163 0 9683 0 0.105 10 1 2 19 37
685	9340086 85 7555 910370 0.083428886256 9.083428886256 3 44 44 132 5808
688	9340171 85 7555 910370 0.083428886256 9.083428886256 3 45 45 135 6075
689	9340256 143 7558 910906 0.083428886256 9.088 6 45 47 276 12702
690	9340399 75138 6947 1011200 0.077 9.999 3976 0 0 0 0
691	9415537 55 8045 910902 0.088 9.088 3 0 0 0 0
692	9415592 75049 6947 1011200 0.077 9.999 3971 0 0 0 0
697	9490641 34 7149 7650 0.079 0.084 2 1 2 3 5
711	9490675 10 0 0 0 0 1 1 1 1 1
717	9490685 85 2706 904590 0.032752273618 9.032752273618 3 44 44 132 5808
720	9490770 85 2706 904590 0.032752273618 9.032752273618 3 45 45 135 6075
721	9490855 85 2709 904593 0.032752273618 9.032752273618 3 45 45 135 6075
724	9490940 26592 2729 1010970 0.033 9.998 1399 0 0 0 0
730	9517532 29582 260039 1010970 3.033 9.998 1394 1 1394 972315 903928845
731	9547114 85 2729 4476 0.033 0.053 5 1 5 15 55
743	9547199 163 0 9684 0 0.105 10 1 2 19 37
749	9547362 85 6155 908673 0.068834142487 9.068834142487 3 44 44 132 5808
752	9547447 85 6155 908673 0.068834142487 9.068834142487 3 45 45 135 6075
753	9547532 85 6158 908676 0.068834142487 9.068834142487 3 45 45 135 6075
756	9547617 26374 263731 1011139 3.069 9.999 1387 0 0 0 0
763	9573991 29428 263731 1011139 3.069 9.999 1387 1 1387 962578 890384650
775	9603419 163 0 9685 0 0.105 10 1 2 19 37
781	9603582 85 7891 910788 0.086610205313 9.086610205313 3 44 44 132 5808
784	9603667 85 7891 910788 0.086610205313 9.086610205313 3 45 45 135 6075
785	9603752 85 7894 910791 0.086610205313 9.086610205313 3 45 45 135 6075
788	9603837 37479 7984 1010887 0.087 9.997 1983 0 0 0 0
795	9641316 42321 7984 1010887 0.087 9.997 1983 1 1983 1967136 2601209504
807	9683637 10 0 0 0 0 1 1 1 1 1
813	9683647 85 2339 904104 0.028524626123 9.028524626123 3 44 44 132 5808
816	9683732 85 2339 904104 0.028524626123 9.028524626123 3 45 45 135 6075
817	9683817 85 2342 904107 0.028524626123 9.028524626123 3 45 45 135 6075
820	9683902 37685 2368 1011142 0.029 9.999 1995 0 0 0 0
827	9721587 42563 2368 1011142 0.029 9.999 1995 1 1995 1991010 2648706970
839	9764150 10 0 0 0 0 1 1 1 1 1
845	9764160 85 1448 902737 0.016661029886 9.016661029886 3 44 44 132 5808
848	9764245 85 1448 902737 0.016661029886 9.016661029886 3 45 45 135 6075
849	9764330 85 1451 902740 0.016661029886 9.016661029886 3 45 45 135 6075
852	9764415 37717 1474 1010890 0.017 9.997 1997 0 0 0 0
859	9802132 42601 1474 1010890 0.017 9.997 1997 1 1997 1995003 2656678995
871	9844733 10 0 0 0 0 1 1 1 1 1
877	9844743 82 6402 908960 0.07167949236 9.07167949236 3 44 44 132 5808
880	9844825 82 6402 908960 0.07167949236 9.07167949236 3 45 45 135 6075
881	9844907 82 6405 908963 0.07167949236 9.07167949236 3 45 45 135 6075
884	9844989 37530 6461 1010892 0.072 9.997 1986 0 0 0 0
891	9882519 42381 6461 1010892 0.072 9.997 1986 1 1986 1973091 2613030181
903	9924900 10 0 0 0 0 1 1 1 1 1
909	9924910 85 1916 903505 0.023988382854 9.023988382854 3 44 44 132 5808
912	9924995 85 1916 903505 0.023988382854 9.023988382854 3 45 45 135 6075
913	9925080 26611 1919 1010981 0.023988382854 9.998 1398 0 45 135 6075
914	9951691 132473 6134 1011171 0.068 9.999 6967 0 0 0 0
915	10084164 26526 259547 1010977 3.028 9.998 1395 0 0 0 0
916	10110690 106087 1978 1011171 0.024 9.999 5580 0 0 0 0
923	10216777 119 1978 4599 0.024 0.054 7 1 7 28 140
935	10216896 163 0 9686 0 0.105 10 1 2 19 37
941	10217059 85 1854 903397 0.022310547896 9.022310547896 3 44 44 132 5808
944	10217144 85 1854 903397 0.022310547896 9.022310547896 3 45 45 135 6075
945	10217229 143 1857 903954 0.022310547896 9.027 6 45 47 276 12702
946	10217372 74296 2127 1011290 0.025 10 3992 0 0 0 0
947	10291668 55 2257 903950 0.027 9.027 3 0 0 0 0
948	10291723 74241 1892 1011290 0.023 10 3989 0 0 0 0
967	10365964 10 0 0 0 0 1 1 1 1 1
973	10365974 85 2888 904879 0.035430226282 9.035430226282 3 44 44 132 5808
976	10366059 85 2888 904879 0.035430226282 9.035430226282 3 45 45 135 6075
977	10366144 85 2891 904882 0.035430226282 9.035430226282 3 45 45 135 6075
980	10366229 37648 2950 1010786 0.036 9.996 1993 0 0 0 0
987	10403877 42520 2950 1010786 0.036 9.996 1993 1 1993 1987021 2640750909
999	10446397 10 0 0 0 0 1 1 1 1 1
1005	10446407 88 5924 908372 0.066313387325 9.066313387325 3 44 44 132 5808
1008	10446495 88 5924 908372 0.066313387325 9.066313387325 3 45 45 135 6075
1009	10446583 88 5927 908375 0.066313387325 9.066313387325 3 45 45 135 6075
1012	10446671 27778 5996 1010897 0.067 9.997 1388 0 0 0 0
1019	10474449 30835 5996 1010897 0.067 9.997 1388 1 1388 963966 892311194
1031	10505284 173 0 9687 0 0.105 10 1 2 19 37
1037	10505457 88 4796 907129 0.055340032522 9.055340032522 3 44 44 132 5808
1040	10505545 88 4796 907129 0.055340032522 9.055340032522 3 45 45 135 6075
1041	10505633 107 4799 907132 0.055340032522 9.055340032522 4 5 45 140 6100
1042	10505740 83547 2124 1011250 0.025 10 4219 0 0 0 0
1043	10589287 19 262695 262695 3.06 3.06 1 0 0 0 0
1044	10589306 83097 2124 1011250 0.025 10 4194 0 0 0 0
1048	10672403 18 5048 5048 0.057 0.057 1 1 1 1 1
1049	10672421 444 2282 5062 0.027 0.057 24 1 24 300 4900
1063	10672865 173 0 9688 0 0.105 10 1 2 19 37
1069	10673038 88 2824 904783 0.034605648699 9.034605648699 3 44 44 132 5808
1072	10673126 88 2824 904783 0.034605648699 9.034605648699 3 45 45 135 6075
1073	10673214 88 2827 904786 0.034605648699 9.034605648699 3 45 45 135 6075
1076	10673302 38546 2858 1011242 0.035 10 1994 0 0 0 0
1083	10711848 43421 2858 1011242 0.035 10 1994 1 1994 1989015 2644726945
1095	10755269 11 0 0 0 0 1 1 1 1 1
1101	10755280 88 1292 902404 0.013911452058 9.013911452058 3 44 44 132 5808
1104	10755368 88 1292 902404 0.013911452058 9.013911452058 3 45 45 135 6075
1105	10755456 39803 1295 1010991 0.013911452058 9.998 2000 0 45 135 6075
1106	10795259 158406 1443 1011174 0.016 9.999 7963 0 0 0 0
1107	10953665 39715 1549 1010987 0.018 9.998 1997 0 0 0 0
1108	10993380 118713 1326 1011174 0.014 9.999 5967 0 0 0 0
1127	11112093 11 0 0 0 0 1 1 1 1 1
1133	11112104 88 6965 909670 0.077248390815 9.077248390815 3 44 44 132 5808
1136	11112192 88 6965 909670 0.077248390815 9.077248390815 3 45 45 135 6075
1137	11112280 88 6968 909673 0.077248390815 9.077248390815 3 45 45 135 6075
1138	11112368 39497 6880 1010800 0.076 9.996 1985 0 0 0 0
1140	11151865 78996 6880 1010992 0.076 9.998 3970 0 0 0 0
1146	11230861 44347 7034 1010992 0.078 9.998 1985 1 1985 1971105 2609085985
1159	11275208 11 0 0 0 0 1 1 1 1 1
1639	11275219 94 1289 902401 0.013911452058 9.013911452058 3 7504 7504 22512 168930048
1640	11275313 94 1289 902401 0.013911452058 9.013911452058 3 7504 7504 22512 168930048
1642	11275407 85 1289 902401 0.013911452058 9.013911452058 3 0 0 0 0
1653	11275492 85 1289 902401 0.013911452058 9.013911452058 3 0 0 0 0
1663	11275577 94 1445 902734 0.016661029886 9.016661029886 3 7504 7504 22512 168930048
1664	11275671 94 1445 902734 0.016661029886 9.016661029886 3 7504 7504 22512 168930048
1666	11275765 85 1445 902734 0.016661029886 9.016661029886 3 0 0 0 0
1677	11275850 85 1445 902734 0.016661029886 9.016661029886 3 0 0 0 0
1687	11275935 94 1681 903061 0.019660798032 9.019660798032 3 7504 7504 22512 168930048
1688	11276029 94 1681 903061 0.019660798032 9.019660798032 3 7504 7504 22512 168930048
1690	11276123 85 1681 903061 0.019660798032 9.019660798032 3 0 0 0 0
1701	11276208 85 1681 903061 0.019660798032 9.019660798032 3 0 0 0 0
1711	11276293 94 1851 903394 0.022310547896 9.022310547896 3 7504 7504 22512 168930048
1712	11276387 94 1851 903394 0.022310547896 9.022310547896 3 7504 7504 22512 168930048
1714	11276481 85 1851 903394 0.022310547896 9.022310547896 3 0 0 0 0
1725	11276566 85 1851 903394 0.022310547896 9.022310547896 3 0 0 0 0
1735	11276651 94 1859 903401 0.022555459228 9.022555459228 3 7504 7504 22512 168930048
1736	11276745 94 1859 903401 0.022555459228 9.022555459228 3 7504 7504 22512 168930048
1738	11276839 85 1859 903401 0.022555459228 9.022555459228 3 0 0 0 0
1749	11276924 85 1859 903401 0.022555459228 9.022555459228 3 0 0 0 0
1759	11277009 94 1913 903502 0.023988382854 9.023988382854 3 7504 7504 22512 168930048
1760	11277103 94 1913 903502 0.023988382854 9.023988382854 3 7504 7504 22512 168930048
1762	11277197 85 1913 903502 0.023988382854 9.023988382854 3 0 0 0 0
1773	11277282 85 1913 903502 0.023988382854 9.023988382854 3 0 0 0 0
1783	11277367 94 2132 903757 0.025952952534 9.025952952534 3 7504 7504 22512 168930048
1784	11277461 94 2132 903757 0.025952952534 9.025952952534 3 7504 7504 22512 168930048
1786	11277555 85 2132 903757 0.025952952534 9.025952952534 3 0 0 0 0
1797	11277640 85 2132 903757 0.025952952534 9.025952952534 3 0 0 0 0
1807	11277725 94 2336 904101 0.028524626123 9.028524626123 3 7504 7504 22512 168930048
1808	11277819 94 2336 904101 0.028524626123 9.028524626123 3 7504 7504 22512 168930048
1810	11277913 85 2336 904101 0.028524626123 9.028524626123 3 0 0 0 0
1821	11277998 85 2336 904101 0.028524626123 9.028524626123 3 0 0 0 0
1831	11278083 94 2703 904587 0.032752273618 9.032752273618 3 7504 7504 22512 168930048
1832	11278177 94 2703 904587 0.032752273618 9.032752273618 3 7504 7504 22512 168930048
1834	11278271 85 2703 904587 0.032752273618 9.032752273618 3 0 0 0 0
1845	11278356 85 2703 904587 0.032752273618 9.032752273618 3 0 0 0 0
1855	11278441 94 2821 904780 0.034605648699 9.034605648699 3 7504 7504 22512 168930048
1856	11278535 94 2821 904780 0.034605648699 9.034605648699 3 7504 7504 22512 168930048
1858	11278629 85 2821 904780 0.034605648699 9.034605648699 3 0 0 0 0
1869	11278714 85 2821 904780 0.034605648699 9.034605648699 3 0 0 0 0
1879	11278799 94 2885 904876 0.035430226282 9.035430226282 3 7504 7504 22512 168930048
1880	11278893 94 2885 904876 0.035430226282 9.035430226282 3 7504 7504 22512 168930048
1882	11278987 85 2885 904876 0.035430226282 9.035430226282 3 0 0 0 0
1893	11279072 85 2885 904876 0.035430226282 9.035430226282 3 0 0 0 0
1903	11279157 94 3125 905107 0.037729873816 9.037729873816 3 7504 7504 22512 168930048
1904	11279251 94 3125 905107 0.037729873816 9.037729873816 3 7504 7504 22512 168930048
1906	11279345 85 3125 905107 0.037729873816 9.037729873816 3 0 0 0 0
1917	11279430 85 3125 905107 0.037729873816 9.037729873816 3 0 0 0 0
1927	11279515 94 3898 906114 0.046595396413 9.046595396413 3 7504 7504 22512 168930048
1928	11279609 94 3898 906114 0.046595396413 9.046595396413 3 7504 7504 22512 168930048
1930	11279703 85 3898 906114 0.046595396413 9.046595396413 3 0 0 0 0
1941	11279788 85 3898 906114 0.046595396413 9.046595396413 3 0 0 0 0
1951	11279873 94 4523 906870 0.053440309435 9.053440309435 3 7504 7504 22512 168930048
1952	11279967 94 4523 906870 0.053440309435 9.053440309435 3 7504 7504 22512 168930048
1954	11280061 85 4523 906870 0.053440309435 9.053440309435 3 0 0 0 0
1965	11280146 85 4523 906870 0.053440309435 9.053440309435 3 0 0 0 0
1975	11280231 91 4531 906877 0.05394782705 9.05394782705 3 7504 7504 22512 168930048
1976	11280322 91 4531 906877 0.05394782705 9.05394782705 3 7504 7504 22512 168930048
1978	11280413 82 4531 906877 0.05394782705 9.05394782705 3 0 0 0 0
1989	11280495 82 4531 906877 0.05394782705 9.05394782705 3 0 0 0 0
1999	11280577 94 4793 907126 0.055340032522 9.055340032522 3 7504 7504 22512 168930048
2000	11280671 94 4793 907126 0.055340032522 9.055340032522 3 7504 7504 22512 168930048
2002	11280765 85 4793 907126 0.055340032522 9.055340032522 3 0 0 0 0
2013	11280850 85 4793 907126 0.055340032522 9.055340032522 3 0 0 0 0
2023	11280935 94 4801 907133 0.055913616046 9.055913616046 3 7504 7504 22512 168930048
2024	11281029 94 4801 907133 0.055913616046 9.055913616046 3 7504 7504 22512 168930048
2026	11281123 85 4801 907133 0.055913616046 9.055913616046 3 0 0 0 0
2037	11281208 85 4801 907133 0.055913616046 9.055913616046 3 0 0 0 0
2047	11281293 94 5235 907470 0.058808041334 9.058808041334 3 7504 7504 22512 168930048
2048	11281387 94 5235 907470 0.058808041334 9.058808041334 3 7504 7504 22512 168930048
2050	11281481 85 5235 907470 0.058808041334 9.058808041334 3 0 0 0 0
2061	11281566 85 5235 907470 0.058808041334 9.058808041334 3 0 0 0 0
2071	11281651 94 5388 907693 0.060918334927 9.060918334927 3 7504 7504 22512 168930048
2072	11281745 94 5388 907693 0.060918334927 9.060918334927 3 7504 7504 22512 168930048
2074	11281839 85 5388 907693 0.060918334927 9.060918334927 3 0 0 0 0
2085	11281924 85 5388 907693 0.060918334927 9.060918334927 3 0 0 0 0
2095	11282009 94 5921 908369 0.066313387325 9.066313387325 3 7504 7504 22512 168930048
2096	11282103 94 5921 908369 0.066313387325 9.066313387325 3 7504 7504 22512 168930048
2098	11282197 85 5921 908369 0.066313387325 9.066313387325 3 0 0 0 0
2109	11282282 85 5921 908369 0.066313387325 9.066313387325 3 0 0 0 0
2119	11282367 94 5929 908376 0.066956260251 9.066956260251 3 7504 7504 22512 168930048
2120	11282461 94 5929 908376 0.066956260251 9.066956260251 3 7504 7504 22512 168930048
2122	11282555 85 5929 908376 0.066956260251 9.066956260251 3 0 0 0 0
2133	11282640 85 5929 908376 0.066956260251 9.066956260251 3 0 0 0 0
2143	11282725 94 6152 908670 0.068834142487 9.068834142487 3 7504 7504 22512 168930048
2144	11282819 94 6152 908670 0.068834142487 9.068834142487 3 7504 7504 22512 168930048
2146	11282913 85 6152 908670 0.068834142487 9.068834142487 3 0 0 0 0
2157	11282998 85 6152 908670 0.068834142487 9.068834142487 3 0 0 0 0
2167	11283083 94 6284 908771 0.069116189484 9.069116189484 3 7504 7504 22512 168930048
2168	11283177 94 6284 908771 0.069116189484 9.069116189484 3 7504 7504 22512 168930048
2170	11283271 85 6284 908771 0.069116189484 9.069116189484 3 0 0 0 0
2181	11283356 85 6284 908771 0.069116189484 9.069116189484 3 0 0 0 0
2191	11283441 91 6399 908957 0.07167949236 9.07167949236 3 7504 7504 22512 168930048
2192	11283532 91 6399 908957 0.07167949236 9.07167949236 3 7504 7504 22512 168930048
2194	11283623 82 6399 908957 0.07167949236 9.07167949236 3 0 0 0 0
2205	11283705 82 6399 908957 0.07167949236 9.07167949236 3 0 0 0 0
2215	11283787 94 6705 909385 0.074373740533 9.074373740533 3 7504 7504 22512 168930048
2216	11283881 94 6705 909385 0.074373740533 9.074373740533 3 7504 7504 22512 168930048
2218	11283975 85 6705 909385 0.074373740533 9.074373740533 3 0 0 0 0
2229	11284060 85 6705 909385 0.074373740533 9.074373740533 3 0 0 0 0
2239	11284145 91 6835 909485 0.07505697578 9.07505697578 3 7504 7504 22512 168930048
2240	11284236 91 6835 909485 0.07505697578 9.07505697578 3 7504 7504 22512 168930048
2242	11284327 82 6835 909485 0.07505697578 9.07505697578 3 0 0 0 0
2253	11284409 82 6835 909485 0.07505697578 9.07505697578 3 0 0 0 0
2263	11284491 94 6962 909667 0.077248390815 9.077248390815 3 7504 7504 22512 168930048
2264	11284585 94 6962 909667 0.077248390815 9.077248390815 3 7504 7504 22512 168930048
2266	11284679 85 6962 909667 0.077248390815 9.077248390815 3 0 0 0 0
2277	11284764 85 6962 909667 0.077248390815 9.077248390815 3 0 0 0 0
2287	11284849 91 7480 910265 0.08215464002 9.08215464002 3 7504 7504 22512 168930048
2288	11284940 91 7480 910265 0.08215464002 9.08215464002 3 7504 7504 22512 168930048
2290	11285031 82 7480 910265 0.08215464002 9.08215464002 3 0 0 0 0
2301	11285113 82 7480 910265 0.08215464002 9.08215464002 3 0 0 0 0
2311	11285195 94 7552 910367 0.083428886256 9.083428886256 3 7504 7504 22512 168930048
2312	11285289 94 7552 910367 0.083428886256 9.083428886256 3 7504 7504 22512 168930048
2314	11285383 85 7552 910367 0.083428886256 9.083428886256 3 0 0 0 0
2325	11285468 85 7552 910367 0.083428886256 9.083428886256 3 0 0 0 0
2335	11285553 94 7888 910785 0.086610205313 9.086610205313 3 7504 7504 22512 168930048
2336	11285647 94 7888 910785 0.086610205313 9.086610205313 3 7504 7504 22512 168930048
2338	11285741 85 7888 910785 0.086610205313 9.086610205313 3 0 0 0 0
2349	11285826 85 7888 910785 0.086610205313 9.086610205313 3 0 0 0 0
