version 2
run CAIN-85-20200508-16:34:41-13095
attr configname CAIN
attr datetime 20200508-16:34:41
attr dist 200
attr experiment CAIN
attr extAllocType "\"CONTIGUOUS_ALLOC\""
attr inifile omnetpp.ini
attr iterationvars "$numUe=20, $pwr=-50, $dist=200, $mob=\"./movements/RWPRPGM-0.5.movements\", $extAllocType=\"CONTIGUOUS_ALLOC\""
attr iterationvars2 "$numUe=20, $pwr=-50, $dist=200, $mob=\"./movements/RWPRPGM-0.5.movements\", $extAllocType=\"CONTIGUOUS_ALLOC\", $repetition=0"
attr measurement "$numUe=20, $pwr=-50, $dist=200, $mob=\"./movements/RWPRPGM-0.5.movements\", $extAllocType=\"CONTIGUOUS_ALLOC\""
attr mob "\"./movements/RWPRPGM-0.5.movements\""
attr network lte.simulations.networks.CAIN
attr numUe 20
attr processid 13095
attr pwr -50
attr repetition 0
attr replication #0
attr resultdir results
attr runnumber 85
attr seedset 0
param **.**.amcMode "\"AUTO\""
param **.amcMode "\"D2D\""
param **.cainNetwork true
param **.channelControl.alpha 1.0
param **.channelControl.carrierFrequency 2100e+6Hz
param **.channelControl.pMax 10W
param **.d2dCqi 7
param **.deployer.numRbDl 50
param **.deployer.numRbUl 50
param **.distThresh ${dist=200}
param **.fbDelay 1
param **.feedbackComputation "xmldoc(\"config_channel.xml\")"
param **.mobility.constraintAreaMaxX 1000m
param **.mobility.constraintAreaMaxY 1000m
param **.mobility.constraintAreaMaxZ 0m
param **.mobility.constraintAreaMinX 0m
param **.mobility.constraintAreaMinY 0m
param **.mobility.constraintAreaMinZ 0m
param **.nic.phy.channelModel "xmldoc(\"config_channel.xml\")"
param **.numBands 50
param **.pwrThresh "${pwr= -50}"
param **.qtdThresh 3
param **.rbAllocationType "\"localized\""
param **.routingRecorder.enabled false
param **.tcpApp[*].tClose -1s
param **.ueD2DTx[*].mobility.changeAngleBy "normal(0deg, 30deg)"
param **.ueD2DTx[*].mobility.changeInterval "normal(5s, 0.1s)"
param **.ueD2DTx[*].mobility.nodeId -1
param **.ueD2DTx[*].mobility.speed "normal(2mps, 0.01mps)"
param **.ueD2DTx[*].mobility.traceFile "${mob=\"./movements/RWP-0.0.movements\",\"./movements/RWP-0.5.movements\",\"./movements/RPGM-0.0.movements\",\"./movements/RPGM-0.5.movements\",\"./movements/RWPRPGM-0.0.movements\",\"./movements/RWPRPGM-0.5.movements\"}"
param **.ueD2DTx[*].mobilityType "\"BonnMotionMobility\""
param **.usePreconfiguredTxParams false
param *.eNodeB*.numX2Apps 1
param *.eNodeB*.x2App[*].server.localPort "5000 + ancestorIndex(1)"
param *.eNodeB.d2dCapable false
param *.eNodeB.mobility.initFromDisplayString false
param *.eNodeB.mobility.initialX 300m
param *.eNodeB.mobility.initialY 300m
param *.eNodeB.nic.phy.enableD2DCqiReporting true
param *.eNodeB.txPower 19952.62315mw
param *.eNodeB.x2App[0].client.connectAddress "\"eNodeB1%x2ppp0\""
param *.eNodeB1.d2dCapable true
param *.eNodeB1.mobility.initFromDisplayString false
param *.eNodeB1.mobility.initialX 700m
param *.eNodeB1.mobility.initialY 300m
param *.eNodeB1.nic.phy.enableD2DCqiReporting true
param *.eNodeB1.txPower 19952.62315mw
param *.eNodeB1.x2App[0].client.connectAddress "\"eNodeB%x2ppp0\""
param *.extCell[*].bandAllocationType "${extAllocType=\"FULL_ALLOC\",\"RANDOM_ALLOC\",\"CONTIGUOUS_ALLOC\"}"
param *.extCell[*].bandUtilization 0.5
param *.extCell[*].txDirection "\"ANISOTROPIC\""
param *.extCell[*].txPower 20
param *.extCell[0].position_x 100m
param *.extCell[0].position_y 600m
param *.extCell[0].txAngle 315
param *.extCell[1].position_x 600m
param *.extCell[1].position_y 600m
param *.extCell[1].txAngle 225
param *.numExtCells 2
param *.numUeCell 0
param *.numUeD2DRx 1
param *.numUeD2DTx 1
param *.ue*.macCellId 1
param *.ue*.masterId 1
param *.ue*.mobility.initFromDisplayString false
param *.ue*[0].macCellId 1
param *.ue*[0].masterId 1
param *.ue*[0].mobility.initFromDisplayString false
param *.ueD2D*.numTcpApps 1
param *.ueD2D*[*].d2dCapable true
param *.ueD2D*[0].d2dCapable false
param *.ueD2D*[0].numTcpApps 1
param *.ueD2DRx[0].mobility.initialX 310m
param *.ueD2DRx[0].mobility.initialY 350m
param *.ueD2DRx[0].tcpApp[*].localPort 1000
param *.ueD2DRx[0].tcpApp[*].typename "\"TCPSinkApp\""
param *.ueD2DTx*.nic.d2dPeerAddresses "\"ueD2DTx[1]\""
param *.ueD2DTx*.tcpApp[*].connectAddress "\"ueD2DTx[0]\""
param *.ueD2DTx*.tcpApp[*].localAddress "\"ueD2DTx\""
param *.ueD2DTx*.tcpApp[*].localPort 1000
param *.ueD2DTx*.tcpApp[*].sendBytes 1GiB
param *.ueD2DTx*.tcpApp[*].typename "\"TCPSessionApp\""
param *.ueD2DTx*.tcpApp[0].active true
param *.ueD2DTx*.tcpApp[0].connectPort 1000
param *.ueD2DTx*.tcpApp[0].tOpen uniform(0.010s,0.1s)
param *.ueD2DTx*.tcpApp[0].tSend uniform(0.15s,0.5s)
param *.ueD2DTx[0].mobility.initialX 290m
param *.ueD2DTx[0].mobility.initialY 350m
param *.ueD2DTx[0].tcpApp[*].localPort 1000
param *.ueD2DTx[0].tcpApp[*].sendBytes 1GiB
param *.ueD2DTx[0].tcpApp[*].typename "\"TCPSessionApp\""
param *.ueD2DTx[0].tcpApp[0].active true
param *.ueD2DTx[0].tcpApp[0].connectAddress "\"ueD2DRx[0]\""
param *.ueD2DTx[0].tcpApp[0].connectPort 1000
param *.ueD2DTx[0].tcpApp[0].localAddress "\"ueD2DTx[0]\""
param *.ueD2DTx[0].tcpApp[0].tOpen uniform(0.010s,0.1s)
param *.ueD2DTx[0].tcpApp[0].tSend uniform(0.15s,0.5s)
param *.ueD2DTx[1].mobility.initialX 690m
param *.ueD2DTx[1].mobility.initialY 250m

vector 8  CAIN.server.ppp[0].queue  queueLength:vector  ETV
attr interpolationmode  sample-hold
attr title  "queue length, vector"
vector 9  CAIN.server.ppp[0].ppp  txState:vector  ETV
attr interpolationmode  sample-hold
attr title  "tx state, vector"
vector 24  CAIN.router.ppp[0].queue  queueLength:vector  ETV
attr interpolationmode  sample-hold
attr title  "queue length, vector"
vector 25  CAIN.router.ppp[0].ppp  txState:vector  ETV
attr interpolationmode  sample-hold
attr title  "tx state, vector"
vector 35  CAIN.router.ppp[1].queue  queueLength:vector  ETV
attr interpolationmode  sample-hold
attr title  "queue length, vector"
vector 36  CAIN.router.ppp[1].ppp  txState:vector  ETV
attr interpolationmode  sample-hold
attr title  "tx state, vector"
vector 56  CAIN.pgw.ppp[0].queue  queueLength:vector  ETV
attr interpolationmode  sample-hold
attr title  "queue length, vector"
vector 57  CAIN.pgw.ppp[0].ppp  txState:vector  ETV
attr interpolationmode  sample-hold
attr title  "tx state, vector"
vector 67  CAIN.pgw.ppp[1].queue  queueLength:vector  ETV
attr interpolationmode  sample-hold
attr title  "queue length, vector"
vector 68  CAIN.pgw.ppp[1].ppp  txState:vector  ETV
attr interpolationmode  sample-hold
attr title  "tx state, vector"
vector 78  CAIN.pgw.pppInterface.queue  queueLength:vector  ETV
attr interpolationmode  sample-hold
attr title  "queue length, vector"
vector 79  CAIN.pgw.pppInterface.ppp  txState:vector  ETV
attr interpolationmode  sample-hold
attr title  "tx state, vector"
vector 120  CAIN.eNodeB.pppIf.queue  queueLength:vector  ETV
attr interpolationmode  sample-hold
attr title  "queue length, vector"
vector 121  CAIN.eNodeB.pppIf.ppp  txState:vector  ETV
attr interpolationmode  sample-hold
attr title  "tx state, vector"
vector 131  CAIN.eNodeB.x2ppp[0].queue  queueLength:vector  ETV
attr interpolationmode  sample-hold
attr title  "queue length, vector"
vector 132  CAIN.eNodeB.x2ppp[0].ppp  txState:vector  ETV
attr interpolationmode  sample-hold
attr title  "tx state, vector"
vector 178  CAIN.eNodeB1.pppIf.queue  queueLength:vector  ETV
attr interpolationmode  sample-hold
attr title  "queue length, vector"
vector 179  CAIN.eNodeB1.pppIf.ppp  txState:vector  ETV
attr interpolationmode  sample-hold
attr title  "tx state, vector"
vector 189  CAIN.eNodeB1.x2ppp[0].queue  queueLength:vector  ETV
attr interpolationmode  sample-hold
attr title  "queue length, vector"
vector 190  CAIN.eNodeB1.x2ppp[0].ppp  txState:vector  ETV
attr interpolationmode  sample-hold
attr title  "tx state, vector"
vector 231  CAIN.ueD2DTx[0].nic.phy  servingCell:vector  ETV
attr source  servingCell
attr title  "ID of the serving eNodeB for the UE, vector"
attr unit  ""
vector 263  CAIN.ueD2DTx[1].nic.phy  servingCell:vector  ETV
attr source  servingCell
attr title  "ID of the serving eNodeB for the UE, vector"
attr unit  ""
vector 295  CAIN.ueD2DTx[2].nic.phy  servingCell:vector  ETV
attr source  servingCell
attr title  "ID of the serving eNodeB for the UE, vector"
attr unit  ""
vector 327  CAIN.ueD2DTx[3].nic.phy  servingCell:vector  ETV
attr source  servingCell
attr title  "ID of the serving eNodeB for the UE, vector"
attr unit  ""
vector 359  CAIN.ueD2DTx[4].nic.phy  servingCell:vector  ETV
attr source  servingCell
attr title  "ID of the serving eNodeB for the UE, vector"
attr unit  ""
vector 391  CAIN.ueD2DTx[5].nic.phy  servingCell:vector  ETV
attr source  servingCell
attr title  "ID of the serving eNodeB for the UE, vector"
attr unit  ""
vector 423  CAIN.ueD2DTx[6].nic.phy  servingCell:vector  ETV
attr source  servingCell
attr title  "ID of the serving eNodeB for the UE, vector"
attr unit  ""
vector 455  CAIN.ueD2DTx[7].nic.phy  servingCell:vector  ETV
attr source  servingCell
attr title  "ID of the serving eNodeB for the UE, vector"
attr unit  ""
vector 487  CAIN.ueD2DTx[8].nic.phy  servingCell:vector  ETV
attr source  servingCell
attr title  "ID of the serving eNodeB for the UE, vector"
attr unit  ""
vector 519  CAIN.ueD2DTx[9].nic.phy  servingCell:vector  ETV
attr source  servingCell
attr title  "ID of the serving eNodeB for the UE, vector"
attr unit  ""
vector 551  CAIN.ueD2DTx[10].nic.phy  servingCell:vector  ETV
attr source  servingCell
attr title  "ID of the serving eNodeB for the UE, vector"
attr unit  ""
vector 583  CAIN.ueD2DTx[11].nic.phy  servingCell:vector  ETV
attr source  servingCell
attr title  "ID of the serving eNodeB for the UE, vector"
attr unit  ""
vector 615  CAIN.ueD2DTx[12].nic.phy  servingCell:vector  ETV
attr source  servingCell
attr title  "ID of the serving eNodeB for the UE, vector"
attr unit  ""
vector 647  CAIN.ueD2DTx[13].nic.phy  servingCell:vector  ETV
attr source  servingCell
attr title  "ID of the serving eNodeB for the UE, vector"
attr unit  ""
vector 679  CAIN.ueD2DTx[14].nic.phy  servingCell:vector  ETV
attr source  servingCell
attr title  "ID of the serving eNodeB for the UE, vector"
attr unit  ""
vector 711  CAIN.ueD2DTx[15].nic.phy  servingCell:vector  ETV
attr source  servingCell
attr title  "ID of the serving eNodeB for the UE, vector"
attr unit  ""
vector 743  CAIN.ueD2DTx[16].nic.phy  servingCell:vector  ETV
attr source  servingCell
attr title  "ID of the serving eNodeB for the UE, vector"
attr unit  ""
vector 775  CAIN.ueD2DTx[17].nic.phy  servingCell:vector  ETV
attr source  servingCell
attr title  "ID of the serving eNodeB for the UE, vector"
attr unit  ""
vector 807  CAIN.ueD2DTx[18].nic.phy  servingCell:vector  ETV
attr source  servingCell
attr title  "ID of the serving eNodeB for the UE, vector"
attr unit  ""
vector 839  CAIN.ueD2DTx[19].nic.phy  servingCell:vector  ETV
attr source  servingCell
attr title  "ID of the serving eNodeB for the UE, vector"
attr unit  ""
vector 863  CAIN.eNodeB.sctp  "Throughput of Association 3"  ETV
vector 885  CAIN.eNodeB1.sctp  "Throughput of Association 4"  ETV
vector 907  CAIN.eNodeB.sctp  "Throughput of Association 1"  ETV
vector 927  CAIN.eNodeB.sctp  "Fast Recovery State 1:10.0.5.2"  ETV
vector 956  CAIN.eNodeB1.sctp  "Throughput of Association 2"  ETV
vector 976  CAIN.eNodeB1.sctp  "Fast Recovery State 2:10.0.5.1"  ETV
vector 128  CAIN.eNodeB.x2ppp[0].queue  rcvdPk:vector(packetBytes)  ETV
attr interpolationmode  none
attr title  "received packets, vector(packetBytes)"
vector 130  CAIN.eNodeB.x2ppp[0].queue  queueingTime:vector  ETV
attr interpolationmode  none
attr title  "queueing time, vector"
vector 186  CAIN.eNodeB1.x2ppp[0].queue  rcvdPk:vector(packetBytes)  ETV
attr interpolationmode  none
attr title  "received packets, vector(packetBytes)"
vector 188  CAIN.eNodeB1.x2ppp[0].queue  queueingTime:vector  ETV
attr interpolationmode  none
attr title  "queueing time, vector"
vector 137  CAIN.eNodeB.x2ppp[0].ppp  rcvdPkFromHL:vector(packetBytes)  ETV
attr interpolationmode  none
attr source  packetReceivedFromUpper
attr title  "packets received from higher layer, vector(packetBytes)"
vector 133  CAIN.eNodeB.x2ppp[0].ppp  txPk:vector(packetBytes)  ETV
attr interpolationmode  none
attr source  packetSentToLower
attr title  "packets transmitted, vector(packetBytes)"
vector 195  CAIN.eNodeB1.x2ppp[0].ppp  rcvdPkFromHL:vector(packetBytes)  ETV
attr interpolationmode  none
attr source  packetReceivedFromUpper
attr title  "packets received from higher layer, vector(packetBytes)"
vector 191  CAIN.eNodeB1.x2ppp[0].ppp  txPk:vector(packetBytes)  ETV
attr interpolationmode  none
attr source  packetSentToLower
attr title  "packets transmitted, vector(packetBytes)"
vector 192  CAIN.eNodeB1.x2ppp[0].ppp  rxPkOk:vector(packetBytes)  ETV
attr interpolationmode  none
attr source  rxPkOk
attr title  "packets received OK, vector(packetBytes)"
vector 196  CAIN.eNodeB1.x2ppp[0].ppp  passedUpPk:vector(packetBytes)  ETV
attr interpolationmode  none
attr source  packetSentToUpper
attr title  "packets passed to higher layer, vector(packetBytes)"
vector 134  CAIN.eNodeB.x2ppp[0].ppp  rxPkOk:vector(packetBytes)  ETV
attr interpolationmode  none
attr source  rxPkOk
attr title  "packets received OK, vector(packetBytes)"
vector 138  CAIN.eNodeB.x2ppp[0].ppp  passedUpPk:vector(packetBytes)  ETV
attr interpolationmode  none
attr source  packetSentToUpper
attr title  "packets passed to higher layer, vector(packetBytes)"
vector 1005  CAIN.eNodeB1.sctp  "Throughput of Association 4"  ETV
vector 882  CAIN.eNodeB1.sctp  "Peer Rwnd 4"  ETV
vector 1025  CAIN.eNodeB1.sctp  "Fast Recovery State 5:10.0.4.1"  ETV
vector 1052  CAIN.eNodeB1.sctp  "Fast Recovery State 5:10.0.2.2"  ETV
vector 1079  CAIN.eNodeB1.sctp  "Fast Recovery State 5:10.0.5.1"  ETV
vector 1108  CAIN.eNodeB.sctp  "Throughput of Association 3"  ETV
vector 860  CAIN.eNodeB.sctp  "Peer Rwnd 3"  ETV
vector 1128  CAIN.eNodeB.sctp  "Fast Recovery State 6:10.0.4.2"  ETV
vector 1155  CAIN.eNodeB.sctp  "Fast Recovery State 6:10.0.3.2"  ETV
vector 1182  CAIN.eNodeB.sctp  "Fast Recovery State 6:10.0.5.2"  ETV
vector 904  CAIN.eNodeB.sctp  "Peer Rwnd 1"  ETV
vector 1209  CAIN.eNodeB.sctp  "Fast Recovery State 1:10.0.4.2"  ETV
vector 1236  CAIN.eNodeB.sctp  "Fast Recovery State 1:10.0.3.2"  ETV
vector 953  CAIN.eNodeB1.sctp  "Peer Rwnd 2"  ETV
vector 1263  CAIN.eNodeB1.sctp  "Fast Recovery State 2:10.0.4.1"  ETV
vector 1290  CAIN.eNodeB1.sctp  "Fast Recovery State 2:10.0.2.2"  ETV
vector 1035  CAIN.eNodeB1.sctp  "Slow Start Threshold 5:10.0.2.2"  ETV
vector 1036  CAIN.eNodeB1.sctp  "Congestion Window 5:10.0.2.2"  ETV
vector 1037  CAIN.eNodeB1.sctp  "Bandwidth 5:10.0.2.2"  ETV
vector 1040  CAIN.eNodeB1.sctp  "HB Sent 5:10.0.2.2"  ETV
vector 1033  CAIN.eNodeB1.sctp  "RTO 5:10.0.2.2"  ETV
vector 1008  CAIN.eNodeB1.sctp  "Slow Start Threshold 5:10.0.4.1"  ETV
vector 1009  CAIN.eNodeB1.sctp  "Congestion Window 5:10.0.4.1"  ETV
vector 1010  CAIN.eNodeB1.sctp  "Bandwidth 5:10.0.4.1"  ETV
vector 1013  CAIN.eNodeB1.sctp  "HB Sent 5:10.0.4.1"  ETV
vector 1006  CAIN.eNodeB1.sctp  "RTO 5:10.0.4.1"  ETV
vector 1062  CAIN.eNodeB1.sctp  "Slow Start Threshold 5:10.0.5.1"  ETV
vector 1063  CAIN.eNodeB1.sctp  "Congestion Window 5:10.0.5.1"  ETV
vector 1064  CAIN.eNodeB1.sctp  "Bandwidth 5:10.0.5.1"  ETV
vector 1060  CAIN.eNodeB1.sctp  "RTO 5:10.0.5.1"  ETV
vector 1138  CAIN.eNodeB.sctp  "Slow Start Threshold 6:10.0.3.2"  ETV
vector 1139  CAIN.eNodeB.sctp  "Congestion Window 6:10.0.3.2"  ETV
vector 1140  CAIN.eNodeB.sctp  "Bandwidth 6:10.0.3.2"  ETV
vector 1143  CAIN.eNodeB.sctp  "HB Sent 6:10.0.3.2"  ETV
vector 1136  CAIN.eNodeB.sctp  "RTO 6:10.0.3.2"  ETV
vector 1111  CAIN.eNodeB.sctp  "Slow Start Threshold 6:10.0.4.2"  ETV
vector 1112  CAIN.eNodeB.sctp  "Congestion Window 6:10.0.4.2"  ETV
vector 1113  CAIN.eNodeB.sctp  "Bandwidth 6:10.0.4.2"  ETV
vector 1116  CAIN.eNodeB.sctp  "HB Sent 6:10.0.4.2"  ETV
vector 1109  CAIN.eNodeB.sctp  "RTO 6:10.0.4.2"  ETV
vector 1165  CAIN.eNodeB.sctp  "Slow Start Threshold 6:10.0.5.2"  ETV
vector 1166  CAIN.eNodeB.sctp  "Congestion Window 6:10.0.5.2"  ETV
vector 1167  CAIN.eNodeB.sctp  "Bandwidth 6:10.0.5.2"  ETV
vector 1163  CAIN.eNodeB.sctp  "RTO 6:10.0.5.2"  ETV
vector 916  CAIN.eNodeB.sctp  "HB ACK Sent 1:10.0.5.2"  ETV
vector 917  CAIN.eNodeB.sctp  "HB Received 1:10.0.5.2"  ETV
vector 965  CAIN.eNodeB1.sctp  "HB ACK Sent 2:10.0.5.1"  ETV
vector 966  CAIN.eNodeB1.sctp  "HB Received 2:10.0.5.1"  ETV
vector 1219  CAIN.eNodeB.sctp  "Slow Start Threshold 1:10.0.3.2"  ETV
vector 1220  CAIN.eNodeB.sctp  "Congestion Window 1:10.0.3.2"  ETV
vector 1221  CAIN.eNodeB.sctp  "Bandwidth 1:10.0.3.2"  ETV
vector 1224  CAIN.eNodeB.sctp  "HB Sent 1:10.0.3.2"  ETV
vector 1217  CAIN.eNodeB.sctp  "RTO 1:10.0.3.2"  ETV
vector 1192  CAIN.eNodeB.sctp  "Slow Start Threshold 1:10.0.4.2"  ETV
vector 1193  CAIN.eNodeB.sctp  "Congestion Window 1:10.0.4.2"  ETV
vector 1194  CAIN.eNodeB.sctp  "Bandwidth 1:10.0.4.2"  ETV
vector 1197  CAIN.eNodeB.sctp  "HB Sent 1:10.0.4.2"  ETV
vector 1190  CAIN.eNodeB.sctp  "RTO 1:10.0.4.2"  ETV
vector 910  CAIN.eNodeB.sctp  "Slow Start Threshold 1:10.0.5.2"  ETV
vector 911  CAIN.eNodeB.sctp  "Congestion Window 1:10.0.5.2"  ETV
vector 912  CAIN.eNodeB.sctp  "Bandwidth 1:10.0.5.2"  ETV
vector 908  CAIN.eNodeB.sctp  "RTO 1:10.0.5.2"  ETV
vector 1273  CAIN.eNodeB1.sctp  "Slow Start Threshold 2:10.0.2.2"  ETV
vector 1274  CAIN.eNodeB1.sctp  "Congestion Window 2:10.0.2.2"  ETV
vector 1275  CAIN.eNodeB1.sctp  "Bandwidth 2:10.0.2.2"  ETV
vector 1278  CAIN.eNodeB1.sctp  "HB Sent 2:10.0.2.2"  ETV
vector 1271  CAIN.eNodeB1.sctp  "RTO 2:10.0.2.2"  ETV
vector 1246  CAIN.eNodeB1.sctp  "Slow Start Threshold 2:10.0.4.1"  ETV
vector 1247  CAIN.eNodeB1.sctp  "Congestion Window 2:10.0.4.1"  ETV
vector 1248  CAIN.eNodeB1.sctp  "Bandwidth 2:10.0.4.1"  ETV
vector 1251  CAIN.eNodeB1.sctp  "HB Sent 2:10.0.4.1"  ETV
vector 1244  CAIN.eNodeB1.sctp  "RTO 2:10.0.4.1"  ETV
vector 959  CAIN.eNodeB1.sctp  "Slow Start Threshold 2:10.0.5.1"  ETV
vector 960  CAIN.eNodeB1.sctp  "Congestion Window 2:10.0.5.1"  ETV
vector 961  CAIN.eNodeB1.sctp  "Bandwidth 2:10.0.5.1"  ETV
vector 957  CAIN.eNodeB1.sctp  "RTO 2:10.0.5.1"  ETV
vector 1173  CAIN.eNodeB.sctp  "HB ACK Received 6:10.0.5.2"  ETV
vector 1164  CAIN.eNodeB.sctp  "RTT 6:10.0.5.2"  ETV
vector 1070  CAIN.eNodeB1.sctp  "HB ACK Received 5:10.0.5.1"  ETV
vector 1061  CAIN.eNodeB1.sctp  "RTT 5:10.0.5.1"  ETV
vector 1171  CAIN.eNodeB.sctp  "HB ACK Sent 6:10.0.5.2"  ETV
vector 1172  CAIN.eNodeB.sctp  "HB Received 6:10.0.5.2"  ETV
vector 1068  CAIN.eNodeB1.sctp  "HB ACK Sent 5:10.0.5.1"  ETV
vector 1069  CAIN.eNodeB1.sctp  "HB Received 5:10.0.5.1"  ETV
vector 967  CAIN.eNodeB1.sctp  "HB ACK Received 2:10.0.5.1"  ETV
vector 958  CAIN.eNodeB1.sctp  "RTT 2:10.0.5.1"  ETV
vector 918  CAIN.eNodeB.sctp  "HB ACK Received 1:10.0.5.2"  ETV
vector 909  CAIN.eNodeB.sctp  "RTT 1:10.0.5.2"  ETV
vector 96  CAIN.eNodeB.nic.mac  receivedPacketFromLowerLayer:vector(packetBytes)  ETV
attr interpolationmode  none
attr source  receivedPacketFromLowerLayer
vector 1305  CAIN.eNodeB.sctp  "SendQueue of Association 6"  ETV
vector 1168  CAIN.eNodeB.sctp  "TSN Sent 6:10.0.5.2"  ETV
vector 1175  CAIN.eNodeB.sctp  "Outstanding Bytes 6:10.0.5.2"  ETV
vector 848  CAIN.eNodeB.sctp  "Outstanding Bytes 3:Total"  ETV
vector 1174  CAIN.eNodeB.sctp  "Queued Sent Bytes 6:10.0.5.2"  ETV
vector 847  CAIN.eNodeB.sctp  "Queued Sent Bytes 3:Total"  ETV
vector 963  CAIN.eNodeB1.sctp  "TSN Received 2:10.0.5.1"  ETV
vector 939  CAIN.eNodeB1.sctp  "Queued Received Bytes 2:Total"  ETV
vector 935  CAIN.eNodeB1.sctp  "Advertised Receiver Window 2"  ETV
vector 944  CAIN.eNodeB1.sctp  "Number of Total Gap Blocks Stored 2"  ETV
vector 945  CAIN.eNodeB1.sctp  "Number of Revokable Gap Blocks Stored 2"  ETV
vector 946  CAIN.eNodeB1.sctp  "Number of Non-Revokable Gap Blocks Stored 2"  ETV
vector 947  CAIN.eNodeB1.sctp  "Number of Duplicate TSNs Stored 2"  ETV
vector 951  CAIN.eNodeB1.sctp  "Length of SACK Sent 2"  ETV
vector 948  CAIN.eNodeB1.sctp  "Number of Revokable Gap Blocks Sent 2"  ETV
vector 949  CAIN.eNodeB1.sctp  "Number of Non-Revokable Gap Blocks Sent 2"  ETV
vector 950  CAIN.eNodeB1.sctp  "Number of Duplicate TSNs Sent 2"  ETV
vector 955  CAIN.eNodeB1.sctp  "End to End Delay of Association 2"  ETV
vector 199  CAIN.eNodeB1.x2App[0].client  rcvdPk:vector(packetBytes)  ETV
attr interpolationmode  none
attr source  rcvdPk
attr title  "packets received, vector(packetBytes)"
vector 1304  CAIN.eNodeB.sctp  "Number of Gap Blocks in Last SACK of Association 6"  ETV
vector 849  CAIN.eNodeB.sctp  "Number of Revokable Gap Blocks in SACK 3"  ETV
vector 850  CAIN.eNodeB.sctp  "Number of Non-Revokable Gap Blocks in SACK 3"  ETV
vector 1185  CAIN.eNodeB.sctp  "TSN Acked CumAck 6:10.0.5.2"  ETV
vector 1151  CAIN.eNodeB.sctp  "Number of Gap Acked Chunks in Last SACK 6:10.0.3.2"  ETV
vector 1152  CAIN.eNodeB.sctp  "Number of Non-Revokable Gap Acked Chunks in Last SACK 6:10.0.3.2"  ETV
vector 1153  CAIN.eNodeB.sctp  "Number of Gap Missed Chunks in Last SACK 6:10.0.3.2"  ETV
vector 1124  CAIN.eNodeB.sctp  "Number of Gap Acked Chunks in Last SACK 6:10.0.4.2"  ETV
vector 1125  CAIN.eNodeB.sctp  "Number of Non-Revokable Gap Acked Chunks in Last SACK 6:10.0.4.2"  ETV
vector 1126  CAIN.eNodeB.sctp  "Number of Gap Missed Chunks in Last SACK 6:10.0.4.2"  ETV
vector 1178  CAIN.eNodeB.sctp  "Number of Gap Acked Chunks in Last SACK 6:10.0.5.2"  ETV
vector 1179  CAIN.eNodeB.sctp  "Number of Non-Revokable Gap Acked Chunks in Last SACK 6:10.0.5.2"  ETV
vector 1180  CAIN.eNodeB.sctp  "Number of Gap Missed Chunks in Last SACK 6:10.0.5.2"  ETV
vector 859  CAIN.eNodeB.sctp  "Arwnd in Last SACK 3"  ETV
vector 1187  CAIN.eNodeB.sctp  "TSN PseudoCumAck 6:10.0.5.2"  ETV
vector 1188  CAIN.eNodeB.sctp  "TSN RTXPseudoCumAck 6:10.0.5.2"  ETV
vector 1181  CAIN.eNodeB.sctp  "Partial Bytes Acked 6:10.0.5.2"  ETV
vector 1333  CAIN.ueD2DTx[13].tcp  tcpRcvQueueBytes  ETV
vector 1320  CAIN.ueD2DTx[13].tcp  "advertised window"  ETV
vector 1319  CAIN.ueD2DTx[13].tcp  "receive window"  ETV
vector 1322  CAIN.ueD2DTx[13].tcp  "sent ack"  ETV
vector 621  CAIN.ueD2DTx[13].nic.pdcpRrc  receivedPacketFromUpperLayer:vector(packetBytes)  ETV
attr interpolationmode  none
attr source  receivedPacketFromUpperLayer
vector 624  CAIN.ueD2DTx[13].nic.pdcpRrc  sentPacketToLowerLayer:vector(packetBytes)  ETV
attr interpolationmode  none
attr source  sentPacketToLowerLayer
vector 625  CAIN.ueD2DTx[13].nic.mac  receivedPacketFromUpperLayer:vector(packetBytes)  ETV
attr interpolationmode  none
attr source  receivedPacketFromUpperLayer
vector 635  CAIN.ueD2DTx[13].nic.mac  CainHopMessageSent:vector  ETV
attr interpolationmode  none
attr title  "# of Sent CAIN hop message, vector"
vector 628  CAIN.ueD2DTx[13].nic.mac  sentPacketToLowerLayer:vector(packetBytes)  ETV
attr interpolationmode  none
attr source  sentPacketToLowerLayer
vector 1357  CAIN.ueD2DTx[19].tcp  tcpRcvQueueBytes  ETV
vector 1344  CAIN.ueD2DTx[19].tcp  "advertised window"  ETV
vector 1343  CAIN.ueD2DTx[19].tcp  "receive window"  ETV
vector 1346  CAIN.ueD2DTx[19].tcp  "sent ack"  ETV
vector 813  CAIN.ueD2DTx[19].nic.pdcpRrc  receivedPacketFromUpperLayer:vector(packetBytes)  ETV
attr interpolationmode  none
attr source  receivedPacketFromUpperLayer
vector 816  CAIN.ueD2DTx[19].nic.pdcpRrc  sentPacketToLowerLayer:vector(packetBytes)  ETV
attr interpolationmode  none
attr source  sentPacketToLowerLayer
vector 817  CAIN.ueD2DTx[19].nic.mac  receivedPacketFromUpperLayer:vector(packetBytes)  ETV
attr interpolationmode  none
attr source  receivedPacketFromUpperLayer
vector 1381  CAIN.ueD2DTx[12].tcp  tcpRcvQueueBytes  ETV
vector 1368  CAIN.ueD2DTx[12].tcp  "advertised window"  ETV
vector 1367  CAIN.ueD2DTx[12].tcp  "receive window"  ETV
vector 1370  CAIN.ueD2DTx[12].tcp  "sent ack"  ETV
vector 589  CAIN.ueD2DTx[12].nic.pdcpRrc  receivedPacketFromUpperLayer:vector(packetBytes)  ETV
attr interpolationmode  none
attr source  receivedPacketFromUpperLayer
vector 592  CAIN.ueD2DTx[12].nic.pdcpRrc  sentPacketToLowerLayer:vector(packetBytes)  ETV
attr interpolationmode  none
attr source  sentPacketToLowerLayer
vector 593  CAIN.ueD2DTx[12].nic.mac  receivedPacketFromUpperLayer:vector(packetBytes)  ETV
attr interpolationmode  none
attr source  receivedPacketFromUpperLayer
vector 603  CAIN.ueD2DTx[12].nic.mac  CainHopMessageSent:vector  ETV
attr interpolationmode  none
attr title  "# of Sent CAIN hop message, vector"
vector 596  CAIN.ueD2DTx[12].nic.mac  sentPacketToLowerLayer:vector(packetBytes)  ETV
attr interpolationmode  none
attr source  sentPacketToLowerLayer
vector 820  CAIN.ueD2DTx[19].nic.mac  sentPacketToLowerLayer:vector(packetBytes)  ETV
attr interpolationmode  none
attr source  sentPacketToLowerLayer
vector 530  CAIN.ueD2DTx[10].nic.mac  receivedPacketFromLowerLayer:vector(packetBytes)  ETV
attr interpolationmode  none
attr source  receivedPacketFromLowerLayer
vector 532  CAIN.ueD2DTx[10].nic.mac  sentPacketToLowerLayer:vector(packetBytes)  ETV
attr interpolationmode  none
attr source  sentPacketToLowerLayer
vector 562  CAIN.ueD2DTx[11].nic.mac  receivedPacketFromLowerLayer:vector(packetBytes)  ETV
attr interpolationmode  none
attr source  receivedPacketFromLowerLayer
vector 564  CAIN.ueD2DTx[11].nic.mac  sentPacketToLowerLayer:vector(packetBytes)  ETV
attr interpolationmode  none
attr source  sentPacketToLowerLayer
vector 111  CAIN.eNodeB.nic.mac  racpkt:vector  ETV
attr interpolationmode  none
attr title  "eNB received racpkt message, vector"
vector 112  CAIN.eNodeB.nic.mac  racDistanceSignal:vector  ETV
attr interpolationmode  none
attr title  "Rac distance to enb, vector"
vector 113  CAIN.eNodeB.nic.mac  racServedDevsSignal:vector  ETV
attr interpolationmode  none
attr title  "# of devices served on rac arriavall, vector"
vector 98  CAIN.eNodeB.nic.mac  sentPacketToLowerLayer:vector(packetBytes)  ETV
attr interpolationmode  none
attr source  sentPacketToLowerLayer
vector 786  CAIN.ueD2DTx[18].nic.mac  receivedPacketFromLowerLayer:vector(packetBytes)  ETV
attr interpolationmode  none
attr source  receivedPacketFromLowerLayer
vector 788  CAIN.ueD2DTx[18].nic.mac  sentPacketToLowerLayer:vector(packetBytes)  ETV
attr interpolationmode  none
attr source  sentPacketToLowerLayer
vector 498  CAIN.ueD2DTx[9].nic.mac  receivedPacketFromLowerLayer:vector(packetBytes)  ETV
attr interpolationmode  none
attr source  receivedPacketFromLowerLayer
vector 500  CAIN.ueD2DTx[9].nic.mac  sentPacketToLowerLayer:vector(packetBytes)  ETV
attr interpolationmode  none
attr source  sentPacketToLowerLayer
vector 818  CAIN.ueD2DTx[19].nic.mac  receivedPacketFromLowerLayer:vector(packetBytes)  ETV
attr interpolationmode  none
attr source  receivedPacketFromLowerLayer
vector 106  CAIN.eNodeB.nic.mac  DistanceSignal:vector  ETV
attr interpolationmode  none
attr title  "Distance to enb, vector"
vector 101  CAIN.eNodeB.nic.mac  CainHopMessage:vector  ETV
attr interpolationmode  none
attr title  "eNB received CAIN hop message, vector"
vector 793  CAIN.ueD2DTx[18].nic.mac  DropedHopMessage:vector  ETV
attr interpolationmode  none
attr title  "Droped Hop CAIN message due to RB not available, vector"
vector 819  CAIN.ueD2DTx[19].nic.mac  sentPacketToUpperLayer:vector(packetBytes)  ETV
attr interpolationmode  none
attr source  sentPacketToUpperLayer
vector 505  CAIN.ueD2DTx[9].nic.mac  DropedHopMessage:vector  ETV
attr interpolationmode  none
attr title  "Droped Hop CAIN message due to RB not available, vector"
vector 115  CAIN.eNodeB.nic.phy  averageCqiUlvect:vector  ETV
attr source  averageCqiUlvect
attr title  "Average Cqi reported in UL, vector"
attr unit  cqi
vector 1405  CAIN.ueD2DTx[11].tcp  tcpRcvQueueBytes  ETV
vector 1392  CAIN.ueD2DTx[11].tcp  "advertised window"  ETV
vector 1391  CAIN.ueD2DTx[11].tcp  "receive window"  ETV
vector 1394  CAIN.ueD2DTx[11].tcp  "sent ack"  ETV
vector 557  CAIN.ueD2DTx[11].nic.pdcpRrc  receivedPacketFromUpperLayer:vector(packetBytes)  ETV
attr interpolationmode  none
attr source  receivedPacketFromUpperLayer
vector 560  CAIN.ueD2DTx[11].nic.pdcpRrc  sentPacketToLowerLayer:vector(packetBytes)  ETV
attr interpolationmode  none
attr source  sentPacketToLowerLayer
vector 561  CAIN.ueD2DTx[11].nic.mac  receivedPacketFromUpperLayer:vector(packetBytes)  ETV
attr interpolationmode  none
attr source  receivedPacketFromUpperLayer
vector 99  CAIN.eNodeB.nic.mac  measuredItbs:vector  ETV
attr source  measuredItbs
attr title  "TBS index, vector"
attr unit  ""
vector 570  CAIN.ueD2DTx[11].nic.mac  CainMessageSent:vector  ETV
attr interpolationmode  none
attr title  "# of Sent CAIN message, vector"
vector 100  CAIN.eNodeB.nic.mac  CainMessage:vector  ETV
attr interpolationmode  none
attr title  "eNB received CAIN message, vector"
vector 1429  CAIN.ueD2DTx[7].tcp  tcpRcvQueueBytes  ETV
vector 1416  CAIN.ueD2DTx[7].tcp  "advertised window"  ETV
vector 1415  CAIN.ueD2DTx[7].tcp  "receive window"  ETV
vector 1418  CAIN.ueD2DTx[7].tcp  "sent ack"  ETV
vector 429  CAIN.ueD2DTx[7].nic.pdcpRrc  receivedPacketFromUpperLayer:vector(packetBytes)  ETV
attr interpolationmode  none
attr source  receivedPacketFromUpperLayer
vector 432  CAIN.ueD2DTx[7].nic.pdcpRrc  sentPacketToLowerLayer:vector(packetBytes)  ETV
attr interpolationmode  none
attr source  sentPacketToLowerLayer
vector 433  CAIN.ueD2DTx[7].nic.mac  receivedPacketFromUpperLayer:vector(packetBytes)  ETV
attr interpolationmode  none
attr source  receivedPacketFromUpperLayer
vector 436  CAIN.ueD2DTx[7].nic.mac  sentPacketToLowerLayer:vector(packetBytes)  ETV
attr interpolationmode  none
attr source  sentPacketToLowerLayer
vector 504  CAIN.ueD2DTx[9].nic.mac  DropedCainMessage:vector  ETV
attr interpolationmode  none
attr title  "Droped CAIN message due to RB not available, vector"
vector 1453  CAIN.ueD2DTx[6].tcp  tcpRcvQueueBytes  ETV
vector 1440  CAIN.ueD2DTx[6].tcp  "advertised window"  ETV
vector 1439  CAIN.ueD2DTx[6].tcp  "receive window"  ETV
vector 1442  CAIN.ueD2DTx[6].tcp  "sent ack"  ETV
vector 397  CAIN.ueD2DTx[6].nic.pdcpRrc  receivedPacketFromUpperLayer:vector(packetBytes)  ETV
attr interpolationmode  none
attr source  receivedPacketFromUpperLayer
vector 400  CAIN.ueD2DTx[6].nic.pdcpRrc  sentPacketToLowerLayer:vector(packetBytes)  ETV
attr interpolationmode  none
attr source  sentPacketToLowerLayer
vector 401  CAIN.ueD2DTx[6].nic.mac  receivedPacketFromUpperLayer:vector(packetBytes)  ETV
attr interpolationmode  none
attr source  receivedPacketFromUpperLayer
vector 410  CAIN.ueD2DTx[6].nic.mac  CainMessageSent:vector  ETV
attr interpolationmode  none
attr title  "# of Sent CAIN message, vector"
vector 404  CAIN.ueD2DTx[6].nic.mac  sentPacketToLowerLayer:vector(packetBytes)  ETV
attr interpolationmode  none
attr source  sentPacketToLowerLayer
vector 434  CAIN.ueD2DTx[7].nic.mac  receivedPacketFromLowerLayer:vector(packetBytes)  ETV
attr interpolationmode  none
attr source  receivedPacketFromLowerLayer
vector 97  CAIN.eNodeB.nic.mac  sentPacketToUpperLayer:vector(packetBytes)  ETV
attr interpolationmode  none
attr source  sentPacketToUpperLayer
vector 92  CAIN.eNodeB.nic.pdcpRrc  receivedPacketFromLowerLayer:vector(packetBytes)  ETV
attr interpolationmode  none
attr source  receivedPacketFromLowerLayer
vector 93  CAIN.eNodeB.nic.pdcpRrc  sentPacketToUpperLayer:vector(packetBytes)  ETV
attr interpolationmode  none
attr source  sentPacketToUpperLayer
vector 86  CAIN.eNodeB.udp  sentPk:vector(packetBytes)  ETV
attr interpolationmode  none
attr source  sentPk
attr title  "packets sent, vector(packetBytes)"
vector 145  CAIN.eNodeB1.udp  rcvdPk:vector(packetBytes)  ETV
attr interpolationmode  none
attr source  rcvdPk
attr title  "packets received, vector(packetBytes)"
vector 146  CAIN.eNodeB1.udp  passedUpPk:vector(count)  ETV
attr interpolationmode  none
attr title  "packets passed up, vector(count)"
vector 435  CAIN.ueD2DTx[7].nic.mac  sentPacketToUpperLayer:vector(packetBytes)  ETV
attr interpolationmode  none
attr source  sentPacketToUpperLayer
vector 1477  CAIN.ueD2DTx[2].tcp  tcpRcvQueueBytes  ETV
vector 1464  CAIN.ueD2DTx[2].tcp  "advertised window"  ETV
vector 1463  CAIN.ueD2DTx[2].tcp  "receive window"  ETV
vector 1466  CAIN.ueD2DTx[2].tcp  "sent ack"  ETV
vector 269  CAIN.ueD2DTx[2].nic.pdcpRrc  receivedPacketFromUpperLayer:vector(packetBytes)  ETV
attr interpolationmode  none
attr source  receivedPacketFromUpperLayer
vector 272  CAIN.ueD2DTx[2].nic.pdcpRrc  sentPacketToLowerLayer:vector(packetBytes)  ETV
attr interpolationmode  none
attr source  sentPacketToLowerLayer
vector 273  CAIN.ueD2DTx[2].nic.mac  receivedPacketFromUpperLayer:vector(packetBytes)  ETV
attr interpolationmode  none
attr source  receivedPacketFromUpperLayer
vector 276  CAIN.ueD2DTx[2].nic.mac  sentPacketToLowerLayer:vector(packetBytes)  ETV
attr interpolationmode  none
attr source  sentPacketToLowerLayer
vector 1501  CAIN.ueD2DTx[10].tcp  tcpRcvQueueBytes  ETV
vector 1488  CAIN.ueD2DTx[10].tcp  "advertised window"  ETV
vector 1487  CAIN.ueD2DTx[10].tcp  "receive window"  ETV
vector 1490  CAIN.ueD2DTx[10].tcp  "sent ack"  ETV
vector 525  CAIN.ueD2DTx[10].nic.pdcpRrc  receivedPacketFromUpperLayer:vector(packetBytes)  ETV
attr interpolationmode  none
attr source  receivedPacketFromUpperLayer
vector 528  CAIN.ueD2DTx[10].nic.pdcpRrc  sentPacketToLowerLayer:vector(packetBytes)  ETV
attr interpolationmode  none
attr source  sentPacketToLowerLayer
vector 529  CAIN.ueD2DTx[10].nic.mac  receivedPacketFromUpperLayer:vector(packetBytes)  ETV
attr interpolationmode  none
attr source  receivedPacketFromUpperLayer
vector 1525  CAIN.ueD2DTx[14].tcp  tcpRcvQueueBytes  ETV
vector 1512  CAIN.ueD2DTx[14].tcp  "advertised window"  ETV
vector 1511  CAIN.ueD2DTx[14].tcp  "receive window"  ETV
vector 1514  CAIN.ueD2DTx[14].tcp  "sent ack"  ETV
vector 653  CAIN.ueD2DTx[14].nic.pdcpRrc  receivedPacketFromUpperLayer:vector(packetBytes)  ETV
attr interpolationmode  none
attr source  receivedPacketFromUpperLayer
vector 656  CAIN.ueD2DTx[14].nic.pdcpRrc  sentPacketToLowerLayer:vector(packetBytes)  ETV
attr interpolationmode  none
attr source  sentPacketToLowerLayer
vector 657  CAIN.ueD2DTx[14].nic.mac  receivedPacketFromUpperLayer:vector(packetBytes)  ETV
attr interpolationmode  none
attr source  receivedPacketFromUpperLayer
vector 538  CAIN.ueD2DTx[10].nic.mac  CainMessageSent:vector  ETV
attr interpolationmode  none
attr title  "# of Sent CAIN message, vector"
vector 667  CAIN.ueD2DTx[14].nic.mac  CainHopMessageSent:vector  ETV
attr interpolationmode  none
attr title  "# of Sent CAIN hop message, vector"
vector 660  CAIN.ueD2DTx[14].nic.mac  sentPacketToLowerLayer:vector(packetBytes)  ETV
attr interpolationmode  none
attr source  sentPacketToLowerLayer
vector 274  CAIN.ueD2DTx[2].nic.mac  receivedPacketFromLowerLayer:vector(packetBytes)  ETV
attr interpolationmode  none
attr source  receivedPacketFromLowerLayer
vector 275  CAIN.ueD2DTx[2].nic.mac  sentPacketToUpperLayer:vector(packetBytes)  ETV
attr interpolationmode  none
attr source  sentPacketToUpperLayer
vector 1549  CAIN.ueD2DTx[4].tcp  tcpRcvQueueBytes  ETV
vector 1536  CAIN.ueD2DTx[4].tcp  "advertised window"  ETV
vector 1535  CAIN.ueD2DTx[4].tcp  "receive window"  ETV
vector 1538  CAIN.ueD2DTx[4].tcp  "sent ack"  ETV
vector 333  CAIN.ueD2DTx[4].nic.pdcpRrc  receivedPacketFromUpperLayer:vector(packetBytes)  ETV
attr interpolationmode  none
attr source  receivedPacketFromUpperLayer
vector 336  CAIN.ueD2DTx[4].nic.pdcpRrc  sentPacketToLowerLayer:vector(packetBytes)  ETV
attr interpolationmode  none
attr source  sentPacketToLowerLayer
vector 337  CAIN.ueD2DTx[4].nic.mac  receivedPacketFromUpperLayer:vector(packetBytes)  ETV
attr interpolationmode  none
attr source  receivedPacketFromUpperLayer
vector 347  CAIN.ueD2DTx[4].nic.mac  CainHopMessageSent:vector  ETV
attr interpolationmode  none
attr title  "# of Sent CAIN hop message, vector"
vector 340  CAIN.ueD2DTx[4].nic.mac  sentPacketToLowerLayer:vector(packetBytes)  ETV
attr interpolationmode  none
attr source  sentPacketToLowerLayer
vector 792  CAIN.ueD2DTx[18].nic.mac  DropedCainMessage:vector  ETV
attr interpolationmode  none
attr title  "Droped CAIN message due to RB not available, vector"
vector 1573  CAIN.ueD2DTx[8].tcp  tcpRcvQueueBytes  ETV
vector 1560  CAIN.ueD2DTx[8].tcp  "advertised window"  ETV
vector 1559  CAIN.ueD2DTx[8].tcp  "receive window"  ETV
vector 1562  CAIN.ueD2DTx[8].tcp  "sent ack"  ETV
vector 461  CAIN.ueD2DTx[8].nic.pdcpRrc  receivedPacketFromUpperLayer:vector(packetBytes)  ETV
attr interpolationmode  none
attr source  receivedPacketFromUpperLayer
vector 464  CAIN.ueD2DTx[8].nic.pdcpRrc  sentPacketToLowerLayer:vector(packetBytes)  ETV
attr interpolationmode  none
attr source  sentPacketToLowerLayer
vector 465  CAIN.ueD2DTx[8].nic.mac  receivedPacketFromUpperLayer:vector(packetBytes)  ETV
attr interpolationmode  none
attr source  receivedPacketFromUpperLayer
vector 468  CAIN.ueD2DTx[8].nic.mac  sentPacketToLowerLayer:vector(packetBytes)  ETV
attr interpolationmode  none
attr source  sentPacketToLowerLayer
vector 1597  CAIN.ueD2DTx[9].tcp  tcpRcvQueueBytes  ETV
vector 1584  CAIN.ueD2DTx[9].tcp  "advertised window"  ETV
vector 1583  CAIN.ueD2DTx[9].tcp  "receive window"  ETV
vector 1586  CAIN.ueD2DTx[9].tcp  "sent ack"  ETV
vector 493  CAIN.ueD2DTx[9].nic.pdcpRrc  receivedPacketFromUpperLayer:vector(packetBytes)  ETV
attr interpolationmode  none
attr source  receivedPacketFromUpperLayer
vector 496  CAIN.ueD2DTx[9].nic.pdcpRrc  sentPacketToLowerLayer:vector(packetBytes)  ETV
attr interpolationmode  none
attr source  sentPacketToLowerLayer
vector 497  CAIN.ueD2DTx[9].nic.mac  receivedPacketFromUpperLayer:vector(packetBytes)  ETV
attr interpolationmode  none
attr source  receivedPacketFromUpperLayer
vector 466  CAIN.ueD2DTx[8].nic.mac  receivedPacketFromLowerLayer:vector(packetBytes)  ETV
attr interpolationmode  none
attr source  receivedPacketFromLowerLayer
vector 1621  CAIN.ueD2DTx[15].tcp  tcpRcvQueueBytes  ETV
vector 1608  CAIN.ueD2DTx[15].tcp  "advertised window"  ETV
vector 1607  CAIN.ueD2DTx[15].tcp  "receive window"  ETV
vector 1610  CAIN.ueD2DTx[15].tcp  "sent ack"  ETV
vector 685  CAIN.ueD2DTx[15].nic.pdcpRrc  receivedPacketFromUpperLayer:vector(packetBytes)  ETV
attr interpolationmode  none
attr source  receivedPacketFromUpperLayer
vector 688  CAIN.ueD2DTx[15].nic.pdcpRrc  sentPacketToLowerLayer:vector(packetBytes)  ETV
attr interpolationmode  none
attr source  sentPacketToLowerLayer
vector 689  CAIN.ueD2DTx[15].nic.mac  receivedPacketFromUpperLayer:vector(packetBytes)  ETV
attr interpolationmode  none
attr source  receivedPacketFromUpperLayer
vector 467  CAIN.ueD2DTx[8].nic.mac  sentPacketToUpperLayer:vector(packetBytes)  ETV
attr interpolationmode  none
attr source  sentPacketToUpperLayer
vector 692  CAIN.ueD2DTx[15].nic.mac  sentPacketToLowerLayer:vector(packetBytes)  ETV
attr interpolationmode  none
attr source  sentPacketToLowerLayer
vector 1645  CAIN.ueD2DTx[17].tcp  tcpRcvQueueBytes  ETV
vector 1632  CAIN.ueD2DTx[17].tcp  "advertised window"  ETV
vector 1631  CAIN.ueD2DTx[17].tcp  "receive window"  ETV
vector 1634  CAIN.ueD2DTx[17].tcp  "sent ack"  ETV
vector 749  CAIN.ueD2DTx[17].nic.pdcpRrc  receivedPacketFromUpperLayer:vector(packetBytes)  ETV
attr interpolationmode  none
attr source  receivedPacketFromUpperLayer
vector 752  CAIN.ueD2DTx[17].nic.pdcpRrc  sentPacketToLowerLayer:vector(packetBytes)  ETV
attr interpolationmode  none
attr source  sentPacketToLowerLayer
vector 753  CAIN.ueD2DTx[17].nic.mac  receivedPacketFromUpperLayer:vector(packetBytes)  ETV
attr interpolationmode  none
attr source  receivedPacketFromUpperLayer
vector 1669  CAIN.ueD2DTx[0].tcp  tcpRcvQueueBytes  ETV
vector 1656  CAIN.ueD2DTx[0].tcp  "advertised window"  ETV
vector 1655  CAIN.ueD2DTx[0].tcp  "receive window"  ETV
vector 1658  CAIN.ueD2DTx[0].tcp  "sent ack"  ETV
vector 205  CAIN.ueD2DTx[0].nic.pdcpRrc  receivedPacketFromUpperLayer:vector(packetBytes)  ETV
attr interpolationmode  none
attr source  receivedPacketFromUpperLayer
vector 208  CAIN.ueD2DTx[0].nic.pdcpRrc  sentPacketToLowerLayer:vector(packetBytes)  ETV
attr interpolationmode  none
attr source  sentPacketToLowerLayer
vector 209  CAIN.ueD2DTx[0].nic.mac  receivedPacketFromUpperLayer:vector(packetBytes)  ETV
attr interpolationmode  none
attr source  receivedPacketFromUpperLayer
vector 219  CAIN.ueD2DTx[0].nic.mac  CainHopMessageSent:vector  ETV
attr interpolationmode  none
attr title  "# of Sent CAIN hop message, vector"
vector 212  CAIN.ueD2DTx[0].nic.mac  sentPacketToLowerLayer:vector(packetBytes)  ETV
attr interpolationmode  none
attr source  sentPacketToLowerLayer
vector 499  CAIN.ueD2DTx[9].nic.mac  sentPacketToUpperLayer:vector(packetBytes)  ETV
attr interpolationmode  none
attr source  sentPacketToUpperLayer
vector 763  CAIN.ueD2DTx[17].nic.mac  CainHopMessageSent:vector  ETV
attr interpolationmode  none
attr title  "# of Sent CAIN hop message, vector"
vector 756  CAIN.ueD2DTx[17].nic.mac  sentPacketToLowerLayer:vector(packetBytes)  ETV
attr interpolationmode  none
attr source  sentPacketToLowerLayer
vector 690  CAIN.ueD2DTx[15].nic.mac  receivedPacketFromLowerLayer:vector(packetBytes)  ETV
attr interpolationmode  none
attr source  receivedPacketFromLowerLayer
vector 109  CAIN.eNodeB.nic.mac  ServedHopDevs:vector  ETV
attr interpolationmode  none
attr title  "# of devices served on hop forwarding, vector"
vector 108  CAIN.eNodeB.nic.mac  ServedDevs:vector  ETV
attr interpolationmode  none
attr title  "# of devices served on cain forwarding, vector"
vector 411  CAIN.ueD2DTx[6].nic.mac  CainHopMessageSent:vector  ETV
attr interpolationmode  none
attr title  "# of Sent CAIN hop message, vector"
vector 691  CAIN.ueD2DTx[15].nic.mac  sentPacketToUpperLayer:vector(packetBytes)  ETV
attr interpolationmode  none
attr source  sentPacketToUpperLayer
vector 149  CAIN.eNodeB1.nic.pdcpRrc  receivedPacketFromUpperLayer:vector(packetBytes)  ETV
attr interpolationmode  none
attr source  receivedPacketFromUpperLayer
vector 152  CAIN.eNodeB1.nic.pdcpRrc  sentPacketToLowerLayer:vector(packetBytes)  ETV
attr interpolationmode  none
attr source  sentPacketToLowerLayer
vector 1301  CAIN.eNodeB1.sctp  "SendQueue of Association 5"  ETV
vector 1065  CAIN.eNodeB1.sctp  "TSN Sent 5:10.0.5.1"  ETV
vector 1072  CAIN.eNodeB1.sctp  "Outstanding Bytes 5:10.0.5.1"  ETV
vector 870  CAIN.eNodeB1.sctp  "Outstanding Bytes 4:Total"  ETV
vector 1071  CAIN.eNodeB1.sctp  "Queued Sent Bytes 5:10.0.5.1"  ETV
vector 869  CAIN.eNodeB1.sctp  "Queued Sent Bytes 4:Total"  ETV
vector 153  CAIN.eNodeB1.nic.mac  receivedPacketFromUpperLayer:vector(packetBytes)  ETV
attr interpolationmode  none
attr source  receivedPacketFromUpperLayer
vector 914  CAIN.eNodeB.sctp  "TSN Received 1:10.0.5.2"  ETV
vector 890  CAIN.eNodeB.sctp  "Queued Received Bytes 1:Total"  ETV
vector 886  CAIN.eNodeB.sctp  "Advertised Receiver Window 1"  ETV
vector 895  CAIN.eNodeB.sctp  "Number of Total Gap Blocks Stored 1"  ETV
vector 896  CAIN.eNodeB.sctp  "Number of Revokable Gap Blocks Stored 1"  ETV
vector 897  CAIN.eNodeB.sctp  "Number of Non-Revokable Gap Blocks Stored 1"  ETV
vector 898  CAIN.eNodeB.sctp  "Number of Duplicate TSNs Stored 1"  ETV
vector 902  CAIN.eNodeB.sctp  "Length of SACK Sent 1"  ETV
vector 899  CAIN.eNodeB.sctp  "Number of Revokable Gap Blocks Sent 1"  ETV
vector 900  CAIN.eNodeB.sctp  "Number of Non-Revokable Gap Blocks Sent 1"  ETV
vector 901  CAIN.eNodeB.sctp  "Number of Duplicate TSNs Sent 1"  ETV
vector 906  CAIN.eNodeB.sctp  "End to End Delay of Association 1"  ETV
vector 141  CAIN.eNodeB.x2App[0].client  rcvdPk:vector(packetBytes)  ETV
attr interpolationmode  none
attr source  rcvdPk
attr title  "packets received, vector(packetBytes)"
vector 1300  CAIN.eNodeB1.sctp  "Number of Gap Blocks in Last SACK of Association 5"  ETV
vector 871  CAIN.eNodeB1.sctp  "Number of Revokable Gap Blocks in SACK 4"  ETV
vector 872  CAIN.eNodeB1.sctp  "Number of Non-Revokable Gap Blocks in SACK 4"  ETV
vector 1082  CAIN.eNodeB1.sctp  "TSN Acked CumAck 5:10.0.5.1"  ETV
vector 1048  CAIN.eNodeB1.sctp  "Number of Gap Acked Chunks in Last SACK 5:10.0.2.2"  ETV
vector 1049  CAIN.eNodeB1.sctp  "Number of Non-Revokable Gap Acked Chunks in Last SACK 5:10.0.2.2"  ETV
vector 1050  CAIN.eNodeB1.sctp  "Number of Gap Missed Chunks in Last SACK 5:10.0.2.2"  ETV
vector 1021  CAIN.eNodeB1.sctp  "Number of Gap Acked Chunks in Last SACK 5:10.0.4.1"  ETV
vector 1022  CAIN.eNodeB1.sctp  "Number of Non-Revokable Gap Acked Chunks in Last SACK 5:10.0.4.1"  ETV
vector 1023  CAIN.eNodeB1.sctp  "Number of Gap Missed Chunks in Last SACK 5:10.0.4.1"  ETV
vector 1075  CAIN.eNodeB1.sctp  "Number of Gap Acked Chunks in Last SACK 5:10.0.5.1"  ETV
vector 1076  CAIN.eNodeB1.sctp  "Number of Non-Revokable Gap Acked Chunks in Last SACK 5:10.0.5.1"  ETV
vector 1077  CAIN.eNodeB1.sctp  "Number of Gap Missed Chunks in Last SACK 5:10.0.5.1"  ETV
vector 881  CAIN.eNodeB1.sctp  "Arwnd in Last SACK 4"  ETV
vector 1084  CAIN.eNodeB1.sctp  "TSN PseudoCumAck 5:10.0.5.1"  ETV
vector 1085  CAIN.eNodeB1.sctp  "TSN RTXPseudoCumAck 5:10.0.5.1"  ETV
vector 1078  CAIN.eNodeB1.sctp  "Partial Bytes Acked 5:10.0.5.1"  ETV
vector 1693  CAIN.ueD2DTx[1].tcp  tcpRcvQueueBytes  ETV
vector 1680  CAIN.ueD2DTx[1].tcp  "advertised window"  ETV
vector 1679  CAIN.ueD2DTx[1].tcp  "receive window"  ETV
vector 1682  CAIN.ueD2DTx[1].tcp  "sent ack"  ETV
vector 237  CAIN.ueD2DTx[1].nic.pdcpRrc  receivedPacketFromUpperLayer:vector(packetBytes)  ETV
attr interpolationmode  none
attr source  receivedPacketFromUpperLayer
vector 240  CAIN.ueD2DTx[1].nic.pdcpRrc  sentPacketToLowerLayer:vector(packetBytes)  ETV
attr interpolationmode  none
attr source  sentPacketToLowerLayer
vector 241  CAIN.ueD2DTx[1].nic.mac  receivedPacketFromUpperLayer:vector(packetBytes)  ETV
attr interpolationmode  none
attr source  receivedPacketFromUpperLayer
vector 251  CAIN.ueD2DTx[1].nic.mac  CainHopMessageSent:vector  ETV
attr interpolationmode  none
attr title  "# of Sent CAIN hop message, vector"
vector 244  CAIN.ueD2DTx[1].nic.mac  sentPacketToLowerLayer:vector(packetBytes)  ETV
attr interpolationmode  none
attr source  sentPacketToLowerLayer
vector 117  CAIN.eNodeB.pppIf.queue  rcvdPk:vector(packetBytes)  ETV
attr interpolationmode  none
attr title  "received packets, vector(packetBytes)"
vector 119  CAIN.eNodeB.pppIf.queue  queueingTime:vector  ETV
attr interpolationmode  none
attr title  "queueing time, vector"
vector 126  CAIN.eNodeB.pppIf.ppp  rcvdPkFromHL:vector(packetBytes)  ETV
attr interpolationmode  none
attr source  packetReceivedFromUpper
attr title  "packets received from higher layer, vector(packetBytes)"
vector 122  CAIN.eNodeB.pppIf.ppp  txPk:vector(packetBytes)  ETV
attr interpolationmode  none
attr source  packetSentToLower
attr title  "packets transmitted, vector(packetBytes)"
vector 59  CAIN.pgw.ppp[0].ppp  rxPkOk:vector(packetBytes)  ETV
attr interpolationmode  none
attr source  rxPkOk
attr title  "packets received OK, vector(packetBytes)"
vector 63  CAIN.pgw.ppp[0].ppp  passedUpPk:vector(packetBytes)  ETV
attr interpolationmode  none
attr source  packetSentToUpper
attr title  "packets passed to higher layer, vector(packetBytes)"
vector 44  CAIN.pgw.udp  rcvdPk:vector(packetBytes)  ETV
attr interpolationmode  none
attr source  rcvdPk
attr title  "packets received, vector(packetBytes)"
vector 45  CAIN.pgw.udp  passedUpPk:vector(count)  ETV
attr interpolationmode  none
attr title  "packets passed up, vector(count)"
vector 43  CAIN.pgw.udp  sentPk:vector(packetBytes)  ETV
attr interpolationmode  none
attr source  sentPk
attr title  "packets sent, vector(packetBytes)"
vector 64  CAIN.pgw.ppp[1].queue  rcvdPk:vector(packetBytes)  ETV
attr interpolationmode  none
attr title  "received packets, vector(packetBytes)"
vector 66  CAIN.pgw.ppp[1].queue  queueingTime:vector  ETV
attr interpolationmode  none
attr title  "queueing time, vector"
vector 73  CAIN.pgw.ppp[1].ppp  rcvdPkFromHL:vector(packetBytes)  ETV
attr interpolationmode  none
attr source  packetReceivedFromUpper
attr title  "packets received from higher layer, vector(packetBytes)"
vector 69  CAIN.pgw.ppp[1].ppp  txPk:vector(packetBytes)  ETV
attr interpolationmode  none
attr source  packetSentToLower
attr title  "packets transmitted, vector(packetBytes)"
vector 181  CAIN.eNodeB1.pppIf.ppp  rxPkOk:vector(packetBytes)  ETV
attr interpolationmode  none
attr source  rxPkOk
attr title  "packets received OK, vector(packetBytes)"
vector 185  CAIN.eNodeB1.pppIf.ppp  passedUpPk:vector(packetBytes)  ETV
attr interpolationmode  none
attr source  packetSentToUpper
attr title  "packets passed to higher layer, vector(packetBytes)"
vector 1717  CAIN.ueD2DTx[5].tcp  tcpRcvQueueBytes  ETV
vector 1704  CAIN.ueD2DTx[5].tcp  "advertised window"  ETV
vector 1703  CAIN.ueD2DTx[5].tcp  "receive window"  ETV
vector 1706  CAIN.ueD2DTx[5].tcp  "sent ack"  ETV
vector 365  CAIN.ueD2DTx[5].nic.pdcpRrc  receivedPacketFromUpperLayer:vector(packetBytes)  ETV
attr interpolationmode  none
attr source  receivedPacketFromUpperLayer
vector 368  CAIN.ueD2DTx[5].nic.pdcpRrc  sentPacketToLowerLayer:vector(packetBytes)  ETV
attr interpolationmode  none
attr source  sentPacketToLowerLayer
vector 369  CAIN.ueD2DTx[5].nic.mac  receivedPacketFromUpperLayer:vector(packetBytes)  ETV
attr interpolationmode  none
attr source  receivedPacketFromUpperLayer
vector 379  CAIN.ueD2DTx[5].nic.mac  CainHopMessageSent:vector  ETV
attr interpolationmode  none
attr title  "# of Sent CAIN hop message, vector"
vector 372  CAIN.ueD2DTx[5].nic.mac  sentPacketToLowerLayer:vector(packetBytes)  ETV
attr interpolationmode  none
attr source  sentPacketToLowerLayer
vector 154  CAIN.eNodeB1.nic.mac  receivedPacketFromLowerLayer:vector(packetBytes)  ETV
attr interpolationmode  none
attr source  receivedPacketFromLowerLayer
vector 1741  CAIN.ueD2DTx[3].tcp  tcpRcvQueueBytes  ETV
vector 1728  CAIN.ueD2DTx[3].tcp  "advertised window"  ETV
vector 1727  CAIN.ueD2DTx[3].tcp  "receive window"  ETV
vector 1730  CAIN.ueD2DTx[3].tcp  "sent ack"  ETV
vector 301  CAIN.ueD2DTx[3].nic.pdcpRrc  receivedPacketFromUpperLayer:vector(packetBytes)  ETV
attr interpolationmode  none
attr source  receivedPacketFromUpperLayer
vector 304  CAIN.ueD2DTx[3].nic.pdcpRrc  sentPacketToLowerLayer:vector(packetBytes)  ETV
attr interpolationmode  none
attr source  sentPacketToLowerLayer
vector 305  CAIN.ueD2DTx[3].nic.mac  receivedPacketFromUpperLayer:vector(packetBytes)  ETV
attr interpolationmode  none
attr source  receivedPacketFromUpperLayer
vector 315  CAIN.ueD2DTx[3].nic.mac  CainHopMessageSent:vector  ETV
attr interpolationmode  none
attr title  "# of Sent CAIN hop message, vector"
vector 308  CAIN.ueD2DTx[3].nic.mac  sentPacketToLowerLayer:vector(packetBytes)  ETV
attr interpolationmode  none
attr source  sentPacketToLowerLayer
vector 658  CAIN.ueD2DTx[14].nic.mac  receivedPacketFromLowerLayer:vector(packetBytes)  ETV
attr interpolationmode  none
attr source  receivedPacketFromLowerLayer
vector 626  CAIN.ueD2DTx[13].nic.mac  receivedPacketFromLowerLayer:vector(packetBytes)  ETV
attr interpolationmode  none
attr source  receivedPacketFromLowerLayer
vector 1765  CAIN.ueD2DTx[16].tcp  tcpRcvQueueBytes  ETV
vector 1752  CAIN.ueD2DTx[16].tcp  "advertised window"  ETV
vector 1751  CAIN.ueD2DTx[16].tcp  "receive window"  ETV
vector 1754  CAIN.ueD2DTx[16].tcp  "sent ack"  ETV
vector 717  CAIN.ueD2DTx[16].nic.pdcpRrc  receivedPacketFromUpperLayer:vector(packetBytes)  ETV
attr interpolationmode  none
attr source  receivedPacketFromUpperLayer
vector 720  CAIN.ueD2DTx[16].nic.pdcpRrc  sentPacketToLowerLayer:vector(packetBytes)  ETV
attr interpolationmode  none
attr source  sentPacketToLowerLayer
vector 721  CAIN.ueD2DTx[16].nic.mac  receivedPacketFromUpperLayer:vector(packetBytes)  ETV
attr interpolationmode  none
attr source  receivedPacketFromUpperLayer
vector 730  CAIN.ueD2DTx[16].nic.mac  CainMessageSent:vector  ETV
attr interpolationmode  none
attr title  "# of Sent CAIN message, vector"
vector 724  CAIN.ueD2DTx[16].nic.mac  sentPacketToLowerLayer:vector(packetBytes)  ETV
attr interpolationmode  none
attr source  sentPacketToLowerLayer
vector 1789  CAIN.ueD2DTx[18].tcp  tcpRcvQueueBytes  ETV
vector 1776  CAIN.ueD2DTx[18].tcp  "advertised window"  ETV
vector 1775  CAIN.ueD2DTx[18].tcp  "receive window"  ETV
vector 1778  CAIN.ueD2DTx[18].tcp  "sent ack"  ETV
vector 781  CAIN.ueD2DTx[18].nic.pdcpRrc  receivedPacketFromUpperLayer:vector(packetBytes)  ETV
attr interpolationmode  none
attr source  receivedPacketFromUpperLayer
vector 784  CAIN.ueD2DTx[18].nic.pdcpRrc  sentPacketToLowerLayer:vector(packetBytes)  ETV
attr interpolationmode  none
attr source  sentPacketToLowerLayer
vector 785  CAIN.ueD2DTx[18].nic.mac  receivedPacketFromUpperLayer:vector(packetBytes)  ETV
attr interpolationmode  none
attr source  receivedPacketFromUpperLayer
vector 787  CAIN.ueD2DTx[18].nic.mac  sentPacketToUpperLayer:vector(packetBytes)  ETV
attr interpolationmode  none
attr source  sentPacketToUpperLayer
vector 157  CAIN.eNodeB1.nic.mac  measuredItbs:vector  ETV
attr source  measuredItbs
attr title  "TBS index, vector"
attr unit  ""
vector 155  CAIN.eNodeB1.nic.mac  sentPacketToUpperLayer:vector(packetBytes)  ETV
attr interpolationmode  none
attr source  sentPacketToUpperLayer
vector 156  CAIN.eNodeB1.nic.mac  sentPacketToLowerLayer:vector(packetBytes)  ETV
attr interpolationmode  none
attr source  sentPacketToLowerLayer
vector 228  CAIN.ueD2DTx[0].nic.phy  averageCqiDlvect:vector  ETV
attr source  averageCqiDlvect
attr title  "Average Cqi reported in DL, vector"
attr unit  cqi
vector 210  CAIN.ueD2DTx[0].nic.mac  receivedPacketFromLowerLayer:vector(packetBytes)  ETV
attr interpolationmode  none
attr source  receivedPacketFromLowerLayer
vector 211  CAIN.ueD2DTx[0].nic.mac  sentPacketToUpperLayer:vector(packetBytes)  ETV
attr interpolationmode  none
attr source  sentPacketToUpperLayer
vector 206  CAIN.ueD2DTx[0].nic.pdcpRrc  receivedPacketFromLowerLayer:vector(packetBytes)  ETV
attr interpolationmode  none
attr source  receivedPacketFromLowerLayer
vector 207  CAIN.ueD2DTx[0].nic.pdcpRrc  sentPacketToUpperLayer:vector(packetBytes)  ETV
attr interpolationmode  none
attr source  sentPacketToUpperLayer
1108	150	0.0000001228	0
1219	235	0.0000006304	65535
1220	235	0.0000006304	8940
1221	235	0.0000006304	0.3725
1217	235	0.0000006304	3
1224	235	0.0000006304	1
1236	163	0.0000003096	0
1192	235	0.0000006304	65535
1193	235	0.0000006304	8940
1194	235	0.0000006304	0.3725
1190	235	0.0000006304	3
1197	235	0.0000006304	1
1209	163	0.0000003096	0
910	235	0.0000006304	65535
911	235	0.0000006304	8940
912	235	0.0000006304	0.3725
908	235	0.0000006304	3
908	302	0.0000008564	1
909	302	0.0000008564	2.26e-07
914	3867	0.0570000972	2000
914	3886	0.0570004484	2001
914	3886	0.0570004484	2002
914	3886	0.0570004484	2003
914	3886	0.0570004484	2004
914	3886	0.0570004484	2005
914	3886	0.0570004484	2006
914	3886	0.0570004484	2007
914	3886	0.0570004484	2008
914	3886	0.0570004484	2009
914	3886	0.0570004484	2010
914	3886	0.0570004484	2011
914	14263	0.2570021596	2012
914	14263	0.2570021596	2013
914	14263	0.2570021596	2014
914	14263	0.2570021596	2015
914	14263	0.2570021596	2016
914	14263	0.2570021596	2017
914	14263	0.2570021596	2018
914	14263	0.2570021596	2019
914	14263	0.2570021596	2020
914	14263	0.2570021596	2021
914	14263	0.2570021596	2022
914	14263	0.2570021596	2023
914	14263	0.2570021596	2024
914	14263	0.2570021596	2025
914	14263	0.2570021596	2026
914	14263	0.2570021596	2027
914	14263	0.2570021596	2028
914	14263	0.2570021596	2029
914	14263	0.2570021596	2030
914	14263	0.2570021596	2031
914	14263	0.2570021596	2032
914	14263	0.2570021596	2033
914	14263	0.2570021596	2034
914	14263	0.2570021596	2035
914	14263	0.2570021596	2036
914	14263	0.2570021596	2037
914	14263	0.2570021596	2038
914	14263	0.2570021596	2039
914	14263	0.2570021596	2040
914	14263	0.2570021596	2041
914	14263	0.2570021596	2042
914	14263	0.2570021596	2043
914	14263	0.2570021596	2044
914	14263	0.2570021596	2045
914	14263	0.2570021596	2046
914	14263	0.2570021596	2047
914	14263	0.2570021596	2048
914	14263	0.2570021596	2049
914	14263	0.2570021596	2050
914	14263	0.2570021596	2051
914	14263	0.2570021596	2052
914	14263	0.2570021596	2053
914	14263	0.2570021596	2054
914	14263	0.2570021596	2055
914	14263	0.2570021596	2056
914	14263	0.2570021596	2057
914	14263	0.2570021596	2058
914	14263	0.2570021596	2059
914	14263	0.2570021596	2060
914	14263	0.2570021596	2061
914	14263	0.2570021596	2062
914	14263	0.2570021596	2063
914	14263	0.2570021596	2064
914	14263	0.2570021596	2065
914	14263	0.2570021596	2066
914	14263	0.2570021596	2067
914	14263	0.2570021596	2068
914	14263	0.2570021596	2069
914	14263	0.2570021596	2070
914	14263	0.2570021596	2071
914	14263	0.2570021596	2072
914	14263	0.2570021596	2073
914	14263	0.2570021596	2074
914	14263	0.2570021596	2075
914	14263	0.2570021596	2076
914	14263	0.2570021596	2077
914	14263	0.2570021596	2078
914	14263	0.2570021596	2079
914	14263	0.2570021596	2080
914	14263	0.2570021596	2081
914	14263	0.2570021596	2082
914	14263	0.2570021596	2083
914	14263	0.2570021596	2084
914	14263	0.2570021596	2085
914	14263	0.2570021596	2086
914	14263	0.2570021596	2087
914	14263	0.2570021596	2088
914	14263	0.2570021596	2089
914	14263	0.2570021596	2090
914	14263	0.2570021596	2091
914	14263	0.2570021596	2092
914	14263	0.2570021596	2093
914	14263	0.2570021596	2094
914	14263	0.2570021596	2095
914	14263	0.2570021596	2096
914	14263	0.2570021596	2097
914	14263	0.2570021596	2098
914	14263	0.2570021596	2099
914	14263	0.2570021596	2100
914	14263	0.2570021596	2101
914	14263	0.2570021596	2102
914	14263	0.2570021596	2103
914	14263	0.2570021596	2104
914	14263	0.2570021596	2105
914	14263	0.2570021596	2106
914	14263	0.2570021596	2107
917	207	0.000000552	1
917	221	0.000000596	2
916	207	0.000000552	1
916	221	0.000000596	2
918	302	0.0000008564	1
918	308	0.0000009004	2
927	131	0	0
886	3867	0.0570000972	65533
886	14249	0.2570004484	65535
886	24008	0.4570021596	65535
890	3867	0.0570000972	2
890	3870	0.0570000972	2
890	3898	0.0570004484	22
890	3899	0.0570004484	0
890	3900	0.0570004484	0
890	3901	0.0570004484	0
890	3902	0.0570004484	0
890	3903	0.0570004484	0
890	3904	0.0570004484	0
890	3905	0.0570004484	0
890	3906	0.0570004484	0
890	3907	0.0570004484	0
890	3908	0.0570004484	0
890	14249	0.2570004484	0
890	14360	0.2570021596	192
890	14361	0.2570021596	0
890	14362	0.2570021596	0
890	14363	0.2570021596	0
890	14364	0.2570021596	0
890	14365	0.2570021596	0
890	14366	0.2570021596	0
890	14367	0.2570021596	0
890	14368	0.2570021596	0
890	14369	0.2570021596	0
890	14370	0.2570021596	0
890	14371	0.2570021596	0
890	14372	0.2570021596	0
890	14373	0.2570021596	0
890	14374	0.2570021596	0
890	14375	0.2570021596	0
890	14376	0.2570021596	0
890	14377	0.2570021596	0
890	14378	0.2570021596	0
890	14379	0.2570021596	0
890	14380	0.2570021596	0
890	14381	0.2570021596	0
890	14382	0.2570021596	0
890	14383	0.2570021596	0
890	14384	0.2570021596	0
890	14385	0.2570021596	0
890	14386	0.2570021596	0
890	14387	0.2570021596	0
890	14388	0.2570021596	0
890	14389	0.2570021596	0
890	14390	0.2570021596	0
890	14391	0.2570021596	0
890	14392	0.2570021596	0
890	14393	0.2570021596	0
890	14394	0.2570021596	0
890	14395	0.2570021596	0
890	14396	0.2570021596	0
890	14397	0.2570021596	0
890	14398	0.2570021596	0
890	14399	0.2570021596	0
890	14400	0.2570021596	0
890	14401	0.2570021596	0
890	14402	0.2570021596	0
890	14403	0.2570021596	0
890	14404	0.2570021596	0
890	14405	0.2570021596	0
890	14406	0.2570021596	0
890	14407	0.2570021596	0
890	14408	0.2570021596	0
890	14409	0.2570021596	0
890	14410	0.2570021596	0
890	14411	0.2570021596	0
890	14412	0.2570021596	0
890	14413	0.2570021596	0
890	14414	0.2570021596	0
890	14415	0.2570021596	0
890	14416	0.2570021596	0
890	14417	0.2570021596	0
890	14418	0.2570021596	0
890	14419	0.2570021596	0
890	14420	0.2570021596	0
890	14421	0.2570021596	0
890	14422	0.2570021596	0
890	14423	0.2570021596	0
890	14424	0.2570021596	0
890	14425	0.2570021596	0
890	14426	0.2570021596	0
890	14427	0.2570021596	0
890	14428	0.2570021596	0
890	14429	0.2570021596	0
890	14430	0.2570021596	0
890	14431	0.2570021596	0
890	14432	0.2570021596	0
890	14433	0.2570021596	0
890	14434	0.2570021596	0
890	14435	0.2570021596	0
890	14436	0.2570021596	0
890	14437	0.2570021596	0
890	14438	0.2570021596	0
890	14439	0.2570021596	0
890	14440	0.2570021596	0
890	14441	0.2570021596	0
890	14442	0.2570021596	0
890	14443	0.2570021596	0
890	14444	0.2570021596	0
890	14445	0.2570021596	0
890	14446	0.2570021596	0
890	14447	0.2570021596	0
890	14448	0.2570021596	0
890	14449	0.2570021596	0
890	14450	0.2570021596	0
890	14451	0.2570021596	0
890	14452	0.2570021596	0
890	14453	0.2570021596	0
890	14454	0.2570021596	0
890	14455	0.2570021596	0
890	24008	0.4570021596	0
895	3867	0.0570000972	0
895	14249	0.2570004484	0
895	24008	0.4570021596	0
896	3867	0.0570000972	0
896	14249	0.2570004484	0
896	24008	0.4570021596	0
897	3867	0.0570000972	0
897	14249	0.2570004484	0
897	24008	0.4570021596	0
898	3867	0.0570000972	0
898	14249	0.2570004484	0
898	24008	0.4570021596	0
899	3867	0.0570000972	0
899	14249	0.2570004484	0
899	24008	0.4570021596	0
900	3867	0.0570000972	0
900	14249	0.2570004484	0
900	24008	0.4570021596	0
901	3867	0.0570000972	0
901	14249	0.2570004484	0
901	24008	0.4570021596	0
902	3867	0.0570000972	16
902	14249	0.2570004484	16
902	24008	0.4570021596	16
904	163	0.0000003096	65535
906	3870	0.0570000972	9.72e-08
906	3898	0.0570004484	2.572e-07
906	3898	0.0570004484	2.572e-07
906	3898	0.0570004484	2.572e-07
906	3898	0.0570004484	2.572e-07
906	3898	0.0570004484	2.572e-07
906	3898	0.0570004484	2.572e-07
906	3898	0.0570004484	2.572e-07
906	3898	0.0570004484	2.572e-07
906	3898	0.0570004484	2.572e-07
906	3898	0.0570004484	2.572e-07
906	3898	0.0570004484	2.572e-07
906	14360	0.2570021596	1.6172e-06
906	14360	0.2570021596	1.6172e-06
906	14360	0.2570021596	1.6172e-06
906	14360	0.2570021596	1.6172e-06
906	14360	0.2570021596	1.6172e-06
906	14360	0.2570021596	1.6172e-06
906	14360	0.2570021596	1.6172e-06
906	14360	0.2570021596	1.6172e-06
906	14360	0.2570021596	1.6172e-06
906	14360	0.2570021596	1.6172e-06
906	14360	0.2570021596	1.6172e-06
906	14360	0.2570021596	1.6172e-06
906	14360	0.2570021596	1.6172e-06
906	14360	0.2570021596	1.6172e-06
906	14360	0.2570021596	1.6172e-06
906	14360	0.2570021596	1.6172e-06
906	14360	0.2570021596	1.6172e-06
906	14360	0.2570021596	1.6172e-06
906	14360	0.2570021596	1.6172e-06
906	14360	0.2570021596	1.6172e-06
906	14360	0.2570021596	1.6172e-06
906	14360	0.2570021596	1.6172e-06
906	14360	0.2570021596	1.6172e-06
906	14360	0.2570021596	1.6172e-06
906	14360	0.2570021596	1.6172e-06
906	14360	0.2570021596	1.6172e-06
906	14360	0.2570021596	1.6172e-06
906	14360	0.2570021596	1.6172e-06
906	14360	0.2570021596	1.6172e-06
906	14360	0.2570021596	1.6172e-06
906	14360	0.2570021596	1.6172e-06
906	14360	0.2570021596	1.6172e-06
906	14360	0.2570021596	1.6172e-06
906	14360	0.2570021596	1.6172e-06
906	14360	0.2570021596	1.6172e-06
906	14360	0.2570021596	1.6172e-06
906	14360	0.2570021596	1.6172e-06
906	14360	0.2570021596	1.6172e-06
906	14360	0.2570021596	1.6172e-06
906	14360	0.2570021596	1.6172e-06
906	14360	0.2570021596	1.6172e-06
906	14360	0.2570021596	1.6172e-06
906	14360	0.2570021596	1.6172e-06
906	14360	0.2570021596	1.6172e-06
906	14360	0.2570021596	1.6172e-06
906	14360	0.2570021596	1.6172e-06
906	14360	0.2570021596	1.6172e-06
906	14360	0.2570021596	1.6172e-06
906	14360	0.2570021596	1.6172e-06
906	14360	0.2570021596	1.6172e-06
906	14360	0.2570021596	1.6172e-06
906	14360	0.2570021596	1.6172e-06
906	14360	0.2570021596	1.6172e-06
906	14360	0.2570021596	1.6172e-06
906	14360	0.2570021596	1.6172e-06
906	14360	0.2570021596	1.6172e-06
906	14360	0.2570021596	1.6172e-06
906	14360	0.2570021596	1.6172e-06
906	14360	0.2570021596	1.6172e-06
906	14360	0.2570021596	1.6172e-06
906	14360	0.2570021596	1.6172e-06
906	14360	0.2570021596	1.6172e-06
906	14360	0.2570021596	1.6172e-06
906	14360	0.2570021596	1.6172e-06
906	14360	0.2570021596	1.6172e-06
906	14360	0.2570021596	1.6172e-06
906	14360	0.2570021596	1.6172e-06
906	14360	0.2570021596	1.6172e-06
906	14360	0.2570021596	1.6172e-06
906	14360	0.2570021596	1.6172e-06
906	14360	0.2570021596	1.6172e-06
906	14360	0.2570021596	1.6172e-06
906	14360	0.2570021596	1.6172e-06
906	14360	0.2570021596	1.6172e-06
906	14360	0.2570021596	1.6172e-06
906	14360	0.2570021596	1.6172e-06
906	14360	0.2570021596	1.6172e-06
906	14360	0.2570021596	1.6172e-06
906	14360	0.2570021596	1.6172e-06
906	14360	0.2570021596	1.6172e-06
906	14360	0.2570021596	1.6172e-06
906	14360	0.2570021596	1.6172e-06
906	14360	0.2570021596	1.6172e-06
906	14360	0.2570021596	1.6172e-06
906	14360	0.2570021596	1.6172e-06
906	14360	0.2570021596	1.6172e-06
906	14360	0.2570021596	1.6172e-06
906	14360	0.2570021596	1.6172e-06
906	14360	0.2570021596	1.6172e-06
906	14360	0.2570021596	1.6172e-06
906	14360	0.2570021596	1.6172e-06
906	14360	0.2570021596	1.6172e-06
906	14360	0.2570021596	1.6172e-06
906	14360	0.2570021596	1.6172e-06
906	14360	0.2570021596	1.6172e-06
906	14360	0.2570021596	1.6172e-06
907	131	0	0
1138	178	0.000000458	65535
1139	178	0.000000458	8940
1140	178	0.000000458	0.3725
1136	178	0.000000458	3
1143	178	0.000000458	1
1151	665	0.0070001912	0
1151	11487	0.2070005424	0
1151	21693	0.4070022536	0
1152	665	0.0070001912	0
1152	11487	0.2070005424	0
1152	21693	0.4070022536	0
1153	665	0.0070001912	0
1153	11487	0.2070005424	0
1153	21693	0.4070022536	0
1155	150	0.0000001228	0
1111	178	0.000000458	65535
1112	178	0.000000458	8940
1113	178	0.000000458	0.3725
1109	178	0.000000458	3
1116	178	0.000000458	1
1124	665	0.0070001912	0
1124	11487	0.2070005424	0
1124	21693	0.4070022536	0
1125	665	0.0070001912	0
1125	11487	0.2070005424	0
1125	21693	0.4070022536	0
1126	665	0.0070001912	0
1126	11487	0.2070005424	0
1126	21693	0.4070022536	0
1128	150	0.0000001228	0
1165	178	0.000000458	65535
1166	178	0.000000458	8940
1167	178	0.000000458	0.3725
1163	178	0.000000458	3
1163	255	0.0000006744	1
1163	665	0.0070001912	1
1163	11487	0.2070005424	1
1163	21693	0.4070022536	1
1164	255	0.0000006744	2.164e-07
1164	665	0.0070001912	1.912e-07
1164	11487	0.2070005424	0.2000003512
1164	21693	0.4070022536	0.2000017112
1168	609	0.007	2000
1168	665	0.0070001912	2001
1168	665	0.0070001912	2002
1168	665	0.0070001912	2003
1168	665	0.0070001912	2004
1168	665	0.0070001912	2005
1168	665	0.0070001912	2006
1168	665	0.0070001912	2007
1168	665	0.0070001912	2008
1168	665	0.0070001912	2009
1168	665	0.0070001912	2010
1168	665	0.0070001912	2011
1168	11487	0.2070005424	2012
1168	11487	0.2070005424	2013
1168	11487	0.2070005424	2014
1168	11487	0.2070005424	2015
1168	11487	0.2070005424	2016
1168	11487	0.2070005424	2017
1168	11487	0.2070005424	2018
1168	11487	0.2070005424	2019
1168	11487	0.2070005424	2020
1168	11487	0.2070005424	2021
1168	11487	0.2070005424	2022
1168	11487	0.2070005424	2023
1168	11487	0.2070005424	2024
1168	11487	0.2070005424	2025
1168	11487	0.2070005424	2026
1168	11487	0.2070005424	2027
1168	11487	0.2070005424	2028
1168	11487	0.2070005424	2029
1168	11487	0.2070005424	2030
1168	11487	0.2070005424	2031
1168	11487	0.2070005424	2032
1168	11487	0.2070005424	2033
1168	11487	0.2070005424	2034
1168	11487	0.2070005424	2035
1168	11487	0.2070005424	2036
1168	11487	0.2070005424	2037
1168	11487	0.2070005424	2038
1168	11487	0.2070005424	2039
1168	11487	0.2070005424	2040
1168	11487	0.2070005424	2041
1168	11487	0.2070005424	2042
1168	11487	0.2070005424	2043
1168	11487	0.2070005424	2044
1168	11487	0.2070005424	2045
1168	11487	0.2070005424	2046
1168	11487	0.2070005424	2047
1168	11487	0.2070005424	2048
1168	11487	0.2070005424	2049
1168	11487	0.2070005424	2050
1168	11487	0.2070005424	2051
1168	11487	0.2070005424	2052
1168	11487	0.2070005424	2053
1168	11487	0.2070005424	2054
1168	11487	0.2070005424	2055
1168	11487	0.2070005424	2056
1168	11487	0.2070005424	2057
1168	11487	0.2070005424	2058
1168	11487	0.2070005424	2059
1168	11487	0.2070005424	2060
1168	11487	0.2070005424	2061
1168	11487	0.2070005424	2062
1168	11487	0.2070005424	2063
1168	11487	0.2070005424	2064
1168	11487	0.2070005424	2065
1168	11487	0.2070005424	2066
1168	11487	0.2070005424	2067
1168	11487	0.2070005424	2068
1168	11487	0.2070005424	2069
1168	11487	0.2070005424	2070
1168	11487	0.2070005424	2071
1168	11487	0.2070005424	2072
1168	11487	0.2070005424	2073
1168	11487	0.2070005424	2074
1168	11487	0.2070005424	2075
1168	11487	0.2070005424	2076
1168	11487	0.2070005424	2077
1168	11487	0.2070005424	2078
1168	11487	0.2070005424	2079
1168	11487	0.2070005424	2080
1168	11487	0.2070005424	2081
1168	11487	0.2070005424	2082
1168	11487	0.2070005424	2083
1168	11487	0.2070005424	2084
1168	11487	0.2070005424	2085
1168	11487	0.2070005424	2086
1168	11487	0.2070005424	2087
1168	11487	0.2070005424	2088
1168	11487	0.2070005424	2089
1168	11487	0.2070005424	2090
1168	11487	0.2070005424	2091
1168	11487	0.2070005424	2092
1168	11487	0.2070005424	2093
1168	11487	0.2070005424	2094
1168	11487	0.2070005424	2095
1168	11487	0.2070005424	2096
1168	11487	0.2070005424	2097
1168	11487	0.2070005424	2098
1168	11487	0.2070005424	2099
1168	11487	0.2070005424	2100
1168	11487	0.2070005424	2101
1168	11487	0.2070005424	2102
1168	11487	0.2070005424	2103
1168	11487	0.2070005424	2104
1168	11487	0.2070005424	2105
1168	11487	0.2070005424	2106
1168	11487	0.2070005424	2107
1172	273	0.0000007624	1
1172	287	0.0000008064	2
1171	273	0.0000007624	1
1171	287	0.0000008064	2
1173	255	0.0000006744	1
1173	265	0.0000007184	2
1174	609	0.007	2
1174	665	0.0070001912	0
1174	665	0.0070001912	2
1174	665	0.0070001912	4
1174	665	0.0070001912	6
1174	665	0.0070001912	8
1174	665	0.0070001912	10
1174	665	0.0070001912	12
1174	665	0.0070001912	14
1174	665	0.0070001912	16
1174	665	0.0070001912	18
1174	665	0.0070001912	20
1174	665	0.0070001912	22
1174	11487	0.2070005424	20
1174	11487	0.2070005424	18
1174	11487	0.2070005424	16
1174	11487	0.2070005424	14
1174	11487	0.2070005424	12
1174	11487	0.2070005424	10
1174	11487	0.2070005424	8
1174	11487	0.2070005424	6
1174	11487	0.2070005424	4
1174	11487	0.2070005424	2
1174	11487	0.2070005424	0
1174	11487	0.2070005424	2
1174	11487	0.2070005424	4
1174	11487	0.2070005424	6
1174	11487	0.2070005424	8
1174	11487	0.2070005424	10
1174	11487	0.2070005424	12
1174	11487	0.2070005424	14
1174	11487	0.2070005424	16
1174	11487	0.2070005424	18
1174	11487	0.2070005424	20
1174	11487	0.2070005424	22
1174	11487	0.2070005424	24
1174	11487	0.2070005424	26
1174	11487	0.2070005424	28
1174	11487	0.2070005424	30
1174	11487	0.2070005424	32
1174	11487	0.2070005424	34
1174	11487	0.2070005424	36
1174	11487	0.2070005424	38
1174	11487	0.2070005424	40
1174	11487	0.2070005424	42
1174	11487	0.2070005424	44
1174	11487	0.2070005424	46
1174	11487	0.2070005424	48
1174	11487	0.2070005424	50
1174	11487	0.2070005424	52
1174	11487	0.2070005424	54
1174	11487	0.2070005424	56
1174	11487	0.2070005424	58
1174	11487	0.2070005424	60
1174	11487	0.2070005424	62
1174	11487	0.2070005424	64
1174	11487	0.2070005424	66
1174	11487	0.2070005424	68
1174	11487	0.2070005424	70
1174	11487	0.2070005424	72
1174	11487	0.2070005424	74
1174	11487	0.2070005424	76
1174	11487	0.2070005424	78
1174	11487	0.2070005424	80
1174	11487	0.2070005424	82
1174	11487	0.2070005424	84
1174	11487	0.2070005424	86
1174	11487	0.2070005424	88
1174	11487	0.2070005424	90
1174	11487	0.2070005424	92
1174	11487	0.2070005424	94
1174	11487	0.2070005424	96
1174	11487	0.2070005424	98
1174	11487	0.2070005424	100
1174	11487	0.2070005424	102
1174	11487	0.2070005424	104
1174	11487	0.2070005424	106
1174	11487	0.2070005424	108
1174	11487	0.2070005424	110
1174	11487	0.2070005424	112
1174	11487	0.2070005424	114
1174	11487	0.2070005424	116
1174	11487	0.2070005424	118
1174	11487	0.2070005424	120
1174	11487	0.2070005424	122
1174	11487	0.2070005424	124
1174	11487	0.2070005424	126
1174	11487	0.2070005424	128
1174	11487	0.2070005424	130
1174	11487	0.2070005424	132
1174	11487	0.2070005424	134
1174	11487	0.2070005424	136
1174	11487	0.2070005424	138
1174	11487	0.2070005424	140
1174	11487	0.2070005424	142
1174	11487	0.2070005424	144
1174	11487	0.2070005424	146
1174	11487	0.2070005424	148
1174	11487	0.2070005424	150
1174	11487	0.2070005424	152
1174	11487	0.2070005424	154
1174	11487	0.2070005424	156
1174	11487	0.2070005424	158
1174	11487	0.2070005424	160
1174	11487	0.2070005424	162
1174	11487	0.2070005424	164
1174	11487	0.2070005424	166
1174	11487	0.2070005424	168
1174	11487	0.2070005424	170
1174	11487	0.2070005424	172
1174	11487	0.2070005424	174
1174	11487	0.2070005424	176
1174	11487	0.2070005424	178
1174	11487	0.2070005424	180
1174	11487	0.2070005424	182
1174	11487	0.2070005424	184
1174	11487	0.2070005424	186
1174	11487	0.2070005424	188
1174	11487	0.2070005424	190
1174	11487	0.2070005424	192
1174	21693	0.4070022536	190
1174	21693	0.4070022536	188
1174	21693	0.4070022536	186
1174	21693	0.4070022536	184
1174	21693	0.4070022536	182
1174	21693	0.4070022536	180
1174	21693	0.4070022536	178
1174	21693	0.4070022536	176
1174	21693	0.4070022536	174
1174	21693	0.4070022536	172
1174	21693	0.4070022536	170
1174	21693	0.4070022536	168
1174	21693	0.4070022536	166
1174	21693	0.4070022536	164
1174	21693	0.4070022536	162
1174	21693	0.4070022536	160
1174	21693	0.4070022536	158
1174	21693	0.4070022536	156
1174	21693	0.4070022536	154
1174	21693	0.4070022536	152
1174	21693	0.4070022536	150
1174	21693	0.4070022536	148
1174	21693	0.4070022536	146
1174	21693	0.4070022536	144
1174	21693	0.4070022536	142
1174	21693	0.4070022536	140
1174	21693	0.4070022536	138
1174	21693	0.4070022536	136
1174	21693	0.4070022536	134
1174	21693	0.4070022536	132
1174	21693	0.4070022536	130
1174	21693	0.4070022536	128
1174	21693	0.4070022536	126
1174	21693	0.4070022536	124
1174	21693	0.4070022536	122
1174	21693	0.4070022536	120
1174	21693	0.4070022536	118
1174	21693	0.4070022536	116
1174	21693	0.4070022536	114
1174	21693	0.4070022536	112
1174	21693	0.4070022536	110
1174	21693	0.4070022536	108
1174	21693	0.4070022536	106
1174	21693	0.4070022536	104
1174	21693	0.4070022536	102
1174	21693	0.4070022536	100
1174	21693	0.4070022536	98
1174	21693	0.4070022536	96
1174	21693	0.4070022536	94
1174	21693	0.4070022536	92
1174	21693	0.4070022536	90
1174	21693	0.4070022536	88
1174	21693	0.4070022536	86
1174	21693	0.4070022536	84
1174	21693	0.4070022536	82
1174	21693	0.4070022536	80
1174	21693	0.4070022536	78
1174	21693	0.4070022536	76
1174	21693	0.4070022536	74
1174	21693	0.4070022536	72
1174	21693	0.4070022536	70
1174	21693	0.4070022536	68
1174	21693	0.4070022536	66
1174	21693	0.4070022536	64
1174	21693	0.4070022536	62
1174	21693	0.4070022536	60
1174	21693	0.4070022536	58
1174	21693	0.4070022536	56
1174	21693	0.4070022536	54
1174	21693	0.4070022536	52
1174	21693	0.4070022536	50
1174	21693	0.4070022536	48
1174	21693	0.4070022536	46
1174	21693	0.4070022536	44
1174	21693	0.4070022536	42
1174	21693	0.4070022536	40
1174	21693	0.4070022536	38
1174	21693	0.4070022536	36
1174	21693	0.4070022536	34
1174	21693	0.4070022536	32
1174	21693	0.4070022536	30
1174	21693	0.4070022536	28
1174	21693	0.4070022536	26
1174	21693	0.4070022536	24
1174	21693	0.4070022536	22
1174	21693	0.4070022536	20
1174	21693	0.4070022536	18
1174	21693	0.4070022536	16
1174	21693	0.4070022536	14
1174	21693	0.4070022536	12
1174	21693	0.4070022536	10
1174	21693	0.4070022536	8
1174	21693	0.4070022536	6
1174	21693	0.4070022536	4
1174	21693	0.4070022536	2
1174	21693	0.4070022536	0
1175	609	0.007	2
1175	665	0.0070001912	0
1175	665	0.0070001912	2
1175	665	0.0070001912	4
1175	665	0.0070001912	6
1175	665	0.0070001912	8
1175	665	0.0070001912	10
1175	665	0.0070001912	12
1175	665	0.0070001912	14
1175	665	0.0070001912	16
1175	665	0.0070001912	18
1175	665	0.0070001912	20
1175	665	0.0070001912	22
1175	11487	0.2070005424	20
1175	11487	0.2070005424	18
1175	11487	0.2070005424	16
1175	11487	0.2070005424	14
1175	11487	0.2070005424	12
1175	11487	0.2070005424	10
1175	11487	0.2070005424	8
1175	11487	0.2070005424	6
1175	11487	0.2070005424	4
1175	11487	0.2070005424	2
1175	11487	0.2070005424	0
1175	11487	0.2070005424	2
1175	11487	0.2070005424	4
1175	11487	0.2070005424	6
1175	11487	0.2070005424	8
1175	11487	0.2070005424	10
1175	11487	0.2070005424	12
1175	11487	0.2070005424	14
1175	11487	0.2070005424	16
1175	11487	0.2070005424	18
1175	11487	0.2070005424	20
1175	11487	0.2070005424	22
1175	11487	0.2070005424	24
1175	11487	0.2070005424	26
1175	11487	0.2070005424	28
1175	11487	0.2070005424	30
1175	11487	0.2070005424	32
1175	11487	0.2070005424	34
1175	11487	0.2070005424	36
1175	11487	0.2070005424	38
1175	11487	0.2070005424	40
1175	11487	0.2070005424	42
1175	11487	0.2070005424	44
1175	11487	0.2070005424	46
1175	11487	0.2070005424	48
1175	11487	0.2070005424	50
1175	11487	0.2070005424	52
1175	11487	0.2070005424	54
1175	11487	0.2070005424	56
1175	11487	0.2070005424	58
1175	11487	0.2070005424	60
1175	11487	0.2070005424	62
1175	11487	0.2070005424	64
1175	11487	0.2070005424	66
1175	11487	0.2070005424	68
1175	11487	0.2070005424	70
1175	11487	0.2070005424	72
1175	11487	0.2070005424	74
1175	11487	0.2070005424	76
1175	11487	0.2070005424	78
1175	11487	0.2070005424	80
1175	11487	0.2070005424	82
1175	11487	0.2070005424	84
1175	11487	0.2070005424	86
1175	11487	0.2070005424	88
1175	11487	0.2070005424	90
1175	11487	0.2070005424	92
1175	11487	0.2070005424	94
1175	11487	0.2070005424	96
1175	11487	0.2070005424	98
1175	11487	0.2070005424	100
1175	11487	0.2070005424	102
1175	11487	0.2070005424	104
1175	11487	0.2070005424	106
1175	11487	0.2070005424	108
1175	11487	0.2070005424	110
1175	11487	0.2070005424	112
1175	11487	0.2070005424	114
1175	11487	0.2070005424	116
1175	11487	0.2070005424	118
1175	11487	0.2070005424	120
1175	11487	0.2070005424	122
1175	11487	0.2070005424	124
1175	11487	0.2070005424	126
1175	11487	0.2070005424	128
1175	11487	0.2070005424	130
1175	11487	0.2070005424	132
1175	11487	0.2070005424	134
1175	11487	0.2070005424	136
1175	11487	0.2070005424	138
1175	11487	0.2070005424	140
1175	11487	0.2070005424	142
1175	11487	0.2070005424	144
1175	11487	0.2070005424	146
1175	11487	0.2070005424	148
1175	11487	0.2070005424	150
1175	11487	0.2070005424	152
1175	11487	0.2070005424	154
1175	11487	0.2070005424	156
1175	11487	0.2070005424	158
1175	11487	0.2070005424	160
1175	11487	0.2070005424	162
1175	11487	0.2070005424	164
1175	11487	0.2070005424	166
1175	11487	0.2070005424	168
1175	11487	0.2070005424	170
1175	11487	0.2070005424	172
1175	11487	0.2070005424	174
1175	11487	0.2070005424	176
1175	11487	0.2070005424	178
1175	11487	0.2070005424	180
1175	11487	0.2070005424	182
1175	11487	0.2070005424	184
1175	11487	0.2070005424	186
1175	11487	0.2070005424	188
1175	11487	0.2070005424	190
1175	11487	0.2070005424	192
1175	21693	0.4070022536	190
1175	21693	0.4070022536	188
1175	21693	0.4070022536	186
1175	21693	0.4070022536	184
1175	21693	0.4070022536	182
1175	21693	0.4070022536	180
1175	21693	0.4070022536	178
1175	21693	0.4070022536	176
1175	21693	0.4070022536	174
1175	21693	0.4070022536	172
1175	21693	0.4070022536	170
1175	21693	0.4070022536	168
1175	21693	0.4070022536	166
1175	21693	0.4070022536	164
1175	21693	0.4070022536	162
1175	21693	0.4070022536	160
1175	21693	0.4070022536	158
1175	21693	0.4070022536	156
1175	21693	0.4070022536	154
1175	21693	0.4070022536	152
1175	21693	0.4070022536	150
1175	21693	0.4070022536	148
1175	21693	0.4070022536	146
1175	21693	0.4070022536	144
1175	21693	0.4070022536	142
1175	21693	0.4070022536	140
1175	21693	0.4070022536	138
1175	21693	0.4070022536	136
1175	21693	0.4070022536	134
1175	21693	0.4070022536	132
1175	21693	0.4070022536	130
1175	21693	0.4070022536	128
1175	21693	0.4070022536	126
1175	21693	0.4070022536	124
1175	21693	0.4070022536	122
1175	21693	0.4070022536	120
1175	21693	0.4070022536	118
1175	21693	0.4070022536	116
1175	21693	0.4070022536	114
1175	21693	0.4070022536	112
1175	21693	0.4070022536	110
1175	21693	0.4070022536	108
1175	21693	0.4070022536	106
1175	21693	0.4070022536	104
1175	21693	0.4070022536	102
1175	21693	0.4070022536	100
1175	21693	0.4070022536	98
1175	21693	0.4070022536	96
1175	21693	0.4070022536	94
1175	21693	0.4070022536	92
1175	21693	0.4070022536	90
1175	21693	0.4070022536	88
1175	21693	0.4070022536	86
1175	21693	0.4070022536	84
1175	21693	0.4070022536	82
1175	21693	0.4070022536	80
[...]
724	32501	0.641	0
724	32746	0.646	0
724	32991	0.651	0
724	33188	0.656	0
724	33433	0.661	0
724	33658	0.666	0
724	33883	0.671	0
724	34128	0.676	0
724	34373	0.681	0
724	34570	0.686	0
724	34815	0.691	0
724	35040	0.696	0
724	35281	0.701	0
724	35526	0.706	0
724	35771	0.711	0
724	35968	0.716	0
724	36213	0.721	0
724	36438	0.726	0
724	36663	0.731	0
724	36908	0.736	0
724	37153	0.741	0
724	37350	0.746	0
724	37595	0.751	0
724	37820	0.756	0
724	38045	0.761	0
724	38290	0.766	0
724	38535	0.771	0
724	38732	0.776	0
724	38977	0.781	0
724	39202	0.786	0
724	39427	0.791	0
724	39672	0.796	0
724	39933	0.801	0
724	40130	0.806	0
724	40375	0.811	0
724	40600	0.816	0
724	40825	0.821	0
724	41070	0.826	0
724	41315	0.831	0
724	41512	0.836	0
724	41757	0.841	0
724	41982	0.846	0
724	42207	0.851	0
730	5043	0.076	1
730	5333	0.081	2
730	5527	0.086	3
730	5817	0.091	4
730	6104	0.096	5
730	6414	0.101	6
730	6742	0.106	7
730	7017	0.111	8
730	7224	0.116	9
730	7471	0.121	10
730	7696	0.126	11
730	7921	0.131	12
730	8166	0.136	13
730	8411	0.141	14
730	8608	0.146	15
730	8853	0.151	16
730	9078	0.156	17
730	9303	0.161	18
730	9548	0.166	19
730	9793	0.171	20
730	9990	0.176	21
730	10235	0.181	22
730	10460	0.186	23
730	10685	0.191	24
730	10930	0.196	25
730	11191	0.201	26
730	11388	0.206	27
730	12128	0.211	28
730	12353	0.216	29
730	12578	0.221	30
730	12823	0.226	31
730	13068	0.231	32
730	13265	0.236	33
730	13510	0.241	34
730	13735	0.246	35
730	13960	0.251	36
730	14205	0.256	37
730	14945	0.261	38
730	15142	0.266	39
730	15387	0.271	40
730	15612	0.276	41
730	15837	0.281	42
730	16082	0.286	43
730	16327	0.291	44
730	16524	0.296	45
730	16785	0.301	46
730	17010	0.306	47
730	17235	0.311	48
730	17480	0.316	49
730	17725	0.321	50
730	17922	0.326	51
730	18167	0.331	52
730	18392	0.336	53
730	18617	0.341	54
730	18862	0.346	55
730	19107	0.351	56
730	19304	0.356	57
730	19549	0.361	58
730	19774	0.366	59
730	19999	0.371	60
730	20244	0.376	61
730	20489	0.381	62
730	20686	0.386	63
730	20931	0.391	64
730	21156	0.396	65
730	21397	0.401	66
730	21642	0.406	67
730	21895	0.411	68
730	22092	0.416	69
730	22337	0.421	70
730	22562	0.426	71
730	22787	0.431	72
730	23032	0.436	73
730	23277	0.441	74
730	23474	0.446	75
730	23719	0.451	76
730	23944	0.456	77
730	24177	0.461	78
730	24422	0.466	79
730	24667	0.471	80
730	24864	0.476	81
730	25109	0.481	82
730	25334	0.486	83
730	25559	0.491	84
730	25804	0.496	85
730	26065	0.501	86
730	26262	0.506	87
730	26507	0.511	88
730	26732	0.516	89
730	26957	0.521	90
730	27202	0.526	91
730	27447	0.531	92
730	27644	0.536	93
730	27889	0.541	94
730	28114	0.546	95
730	28339	0.551	96
730	28584	0.556	97
730	28829	0.561	98
730	29026	0.566	99
730	29271	0.571	100
730	29496	0.576	101
730	29721	0.581	102
730	29966	0.586	103
730	30211	0.591	104
730	30408	0.596	105
730	30669	0.601	106
730	30894	0.606	107
730	31119	0.611	108
730	31364	0.616	109
730	31609	0.621	110
730	31806	0.626	111
730	32051	0.631	112
730	32276	0.636	113
730	32501	0.641	114
730	32746	0.646	115
730	32991	0.651	116
730	33188	0.656	117
730	33433	0.661	118
730	33658	0.666	119
730	33883	0.671	120
730	34128	0.676	121
730	34373	0.681	122
730	34570	0.686	123
730	34815	0.691	124
730	35040	0.696	125
730	35281	0.701	126
730	35526	0.706	127
730	35771	0.711	128
730	35968	0.716	129
730	36213	0.721	130
730	36438	0.726	131
730	36663	0.731	132
730	36908	0.736	133
730	37153	0.741	134
730	37350	0.746	135
730	37595	0.751	136
730	37820	0.756	137
730	38045	0.761	138
730	38290	0.766	139
730	38535	0.771	140
730	38732	0.776	141
730	38977	0.781	142
730	39202	0.786	143
730	39427	0.791	144
730	39672	0.796	145
730	39933	0.801	146
730	40130	0.806	147
730	40375	0.811	148
730	40600	0.816	149
730	40825	0.821	150
730	41070	0.826	151
730	41315	0.831	152
730	41512	0.836	153
730	41757	0.841	154
730	41982	0.846	155
730	42207	0.851	156
743	0	0	1
749	3396	0.05273845314	44
752	3396	0.05273845314	45
753	3399	0.05273845314	45
756	3435	0.053	0
763	3435	0.053	1
775	0	0	1
775	3752	0.057	2
775	4301	0.063	2
775	4641	0.069	2
775	4951	0.075	2
775	5278	0.081	2
775	5598	0.087	2
775	5929	0.093	2
775	6271	0.099	2
775	6641	0.105	2
781	5833	0.091364573385	44
784	5833	0.091364573385	45
785	5836	0.091364573385	45
785	6111	0.096	5
785	6421	0.101	5
785	6480	0.102	41
786	1097	0.015	0
786	1166	0.017	0
786	1368	0.02	0
786	1448	0.022	0
786	1649	0.025	0
786	1760	0.027	0
786	1920	0.03	0
786	2077	0.032	0
786	2233	0.035	0
786	2287	0.036	0
786	2396	0.037	0
786	2402	0.037	0
786	2475	0.038	0
786	2541	0.039	0
786	2587	0.04	0
786	2590	0.04	0
786	2626	0.041	0
786	2704	0.042	0
786	2710	0.042	0
786	2712	0.042	0
786	2812	0.043	0
786	2883	0.044	0
786	2916	0.045	0
786	2919	0.045	0
786	2953	0.046	0
786	3019	0.047	0
786	3025	0.047	0
786	3027	0.047	0
786	3102	0.048	0
786	3215	0.049	0
786	3276	0.05	0
786	3281	0.05	0
786	3316	0.051	0
786	3383	0.052	0
786	3389	0.052	0
786	3391	0.052	0
786	3457	0.053	0
786	3539	0.054	0
786	3639	0.055	0
786	3644	0.055	0
786	3717	0.056	0
786	3851	0.057	0
786	3858	0.057	0
786	3860	0.057	0
786	3987	0.058	0
786	3990	0.058	0
786	4031	0.059	0
786	4094	0.06	0
786	4403	0.064	0
786	4499	0.066	0
786	5082	0.077	0
786	5189	0.079	0
786	5372	0.082	0
786	5459	0.084	0
786	5662	0.087	0
786	5729	0.089	0
786	5913	0.092	0
786	6032	0.094	0
786	6034	0.094	0
786	6062	0.095	0
786	6170	0.097	0
786	6339	0.099	0
786	6341	0.099	0
786	6390	0.1	0
786	6430	0.101	0
786	6432	0.101	0
786	6489	0.102	0
786	6628	0.104	0
786	6752	0.106	0
786	6754	0.106	0
786	6805	0.107	0
786	6807	0.107	0
786	6914	0.109	0
786	7057	0.112	0
786	7146	0.114	0
786	7313	0.117	0
786	7380	0.119	0
786	7558	0.122	0
786	7625	0.124	0
786	7755	0.127	0
786	7870	0.129	0
786	7980	0.132	0
786	8115	0.134	0
786	8205	0.137	0
786	8312	0.139	0
786	8450	0.142	0
786	8537	0.144	0
786	8695	0.147	0
786	8762	0.149	0
786	8940	0.152	0
786	9007	0.154	0
786	9137	0.157	0
786	9252	0.159	0
786	9362	0.162	0
786	9497	0.164	0
786	9587	0.167	0
786	9694	0.169	0
786	9832	0.172	0
786	9919	0.174	0
786	10077	0.177	0
786	10144	0.179	0
786	10322	0.182	0
786	10389	0.184	0
786	10519	0.187	0
786	10634	0.189	0
786	10744	0.192	0
786	10879	0.194	0
786	10969	0.197	0
786	11076	0.199	0
786	11230	0.202	0
786	11317	0.204	0
786	11475	0.207	0
786	12037	0.209	0
786	12215	0.212	0
786	12282	0.214	0
786	12412	0.217	0
786	12527	0.219	0
786	12637	0.222	0
786	12772	0.224	0
786	12862	0.227	0
786	12969	0.229	0
786	13107	0.232	0
786	13194	0.234	0
786	13352	0.237	0
786	13419	0.239	0
786	13597	0.242	0
786	13664	0.244	0
786	13794	0.247	0
786	13909	0.249	0
786	14019	0.252	0
786	14154	0.254	0
786	14244	0.257	0
786	14846	0.259	0
786	14984	0.262	0
786	15071	0.264	0
786	15229	0.267	0
786	15296	0.269	0
786	15474	0.272	0
786	15541	0.274	0
786	15671	0.277	0
786	15786	0.279	0
786	15896	0.282	0
786	16031	0.284	0
786	16121	0.287	0
786	16228	0.289	0
786	16366	0.292	0
786	16453	0.294	0
786	16611	0.297	0
786	16678	0.299	0
786	16872	0.302	0
786	16939	0.304	0
786	17069	0.307	0
786	17184	0.309	0
786	17294	0.312	0
786	17429	0.314	0
786	17519	0.317	0
786	17626	0.319	0
786	17764	0.322	0
786	17851	0.324	0
786	18009	0.327	0
786	18076	0.329	0
786	18254	0.332	0
786	18321	0.334	0
786	18451	0.337	0
786	18566	0.339	0
786	18676	0.342	0
786	18811	0.344	0
786	18901	0.347	0
786	19008	0.349	0
786	19146	0.352	0
786	19233	0.354	0
786	19391	0.357	0
786	19458	0.359	0
786	19636	0.362	0
786	19703	0.364	0
786	19833	0.367	0
786	19948	0.369	0
786	20058	0.372	0
786	20193	0.374	0
786	20283	0.377	0
786	20390	0.379	0
786	20528	0.382	0
786	20615	0.384	0
786	20773	0.387	0
786	20840	0.389	0
786	21018	0.392	0
786	21085	0.394	0
786	21215	0.397	0
786	21330	0.399	0
786	21456	0.402	0
786	21591	0.404	0
786	21681	0.407	0
786	21796	0.409	0
786	21934	0.412	0
786	22021	0.414	0
786	22179	0.417	0
786	22246	0.419	0
786	22424	0.422	0
786	22491	0.424	0
786	22621	0.427	0
786	22736	0.429	0
786	22846	0.432	0
786	22981	0.434	0
786	23071	0.437	0
786	23178	0.439	0
786	23316	0.442	0
786	23403	0.444	0
786	23561	0.447	0
786	23628	0.449	0
786	23806	0.452	0
786	23873	0.454	0
786	24003	0.457	0
786	24126	0.459	0
786	24236	0.462	0
786	24371	0.464	0
786	24461	0.467	0
786	24568	0.469	0
786	24706	0.472	0
786	24793	0.474	0
786	24951	0.477	0
786	25018	0.479	0
786	25196	0.482	0
786	25263	0.484	0
786	25393	0.487	0
786	25508	0.489	0
786	25618	0.492	0
786	25753	0.494	0
786	25843	0.497	0
786	25950	0.499	0
786	26104	0.502	0
786	26191	0.504	0
786	26349	0.507	0
786	26416	0.509	0
786	26594	0.512	0
786	26661	0.514	0
786	26791	0.517	0
786	26906	0.519	0
786	27016	0.522	0
786	27151	0.524	0
786	27241	0.527	0
786	27348	0.529	0
786	27486	0.532	0
786	27573	0.534	0
786	27731	0.537	0
786	27798	0.539	0
786	27976	0.542	0
786	28043	0.544	0
786	28173	0.547	0
786	28288	0.549	0
786	28398	0.552	0
786	28533	0.554	0
786	28623	0.557	0
786	28730	0.559	0
786	28868	0.562	0
786	28955	0.564	0
786	29113	0.567	0
786	29180	0.569	0
786	29358	0.572	0
786	29425	0.574	0
786	29555	0.577	0
786	29670	0.579	0
786	29780	0.582	0
786	29915	0.584	0
786	30005	0.587	0
786	30112	0.589	0
786	30250	0.592	0
786	30337	0.594	0
786	30495	0.597	0
786	30562	0.599	0
786	30756	0.602	0
786	30823	0.604	0
786	30953	0.607	0
786	31068	0.609	0
786	31178	0.612	0
786	31313	0.614	0
786	31403	0.617	0
786	31510	0.619	0
786	31648	0.622	0
786	31735	0.624	0
786	31893	0.627	0
786	31960	0.629	0
786	32138	0.632	0
786	32205	0.634	0
786	32335	0.637	0
786	32450	0.639	0
786	32560	0.642	0
786	32695	0.644	0
786	32785	0.647	0
786	32892	0.649	0
786	33030	0.652	0
786	33117	0.654	0
786	33275	0.657	0
786	33342	0.659	0
786	33520	0.662	0
786	33587	0.664	0
786	33717	0.667	0
786	33832	0.669	0
786	33942	0.672	0
786	34077	0.674	0
786	34167	0.677	0
786	34274	0.679	0
786	34412	0.682	0
786	34499	0.684	0
786	34657	0.687	0
786	34724	0.689	0
786	34902	0.692	0
786	34969	0.694	0
786	35099	0.697	0
786	35214	0.699	0
786	35340	0.702	0
786	35475	0.704	0
786	35565	0.707	0
786	35672	0.709	0
786	35810	0.712	0
786	35897	0.714	0
786	36055	0.717	0
786	36122	0.719	0
786	36300	0.722	0
786	36367	0.724	0
786	36497	0.727	0
786	36612	0.729	0
786	36722	0.732	0
786	36857	0.734	0
786	36947	0.737	0
786	37054	0.739	0
786	37192	0.742	0
786	37279	0.744	0
786	37437	0.747	0
786	37504	0.749	0
786	37682	0.752	0
786	37749	0.754	0
786	37879	0.757	0
786	37994	0.759	0
786	38104	0.762	0
786	38239	0.764	0
786	38329	0.767	0
786	38436	0.769	0
786	38574	0.772	0
786	38661	0.774	0
786	38819	0.777	0
786	38886	0.779	0
786	39064	0.782	0
786	39131	0.784	0
786	39261	0.787	0
786	39376	0.789	0
786	39486	0.792	0
786	39621	0.794	0
786	39711	0.797	0
786	39818	0.799	0
786	39972	0.802	0
786	40059	0.804	0
786	40217	0.807	0
786	40284	0.809	0
786	40462	0.812	0
786	40529	0.814	0
786	40659	0.817	0
786	40774	0.819	0
786	40884	0.822	0
786	41019	0.824	0
786	41109	0.827	0
786	41216	0.829	0
786	41354	0.832	0
786	41441	0.834	0
786	41599	0.837	0
786	41666	0.839	0
786	41844	0.842	0
786	41911	0.844	0
786	42041	0.847	0
786	42156	0.849	0
786	42266	0.852	0
787	6107	0.096	0
787	6417	0.101	0
787	6476	0.102	0
788	1097	0.015	0
788	1368	0.02	0
788	1649	0.025	0
788	1920	0.03	0
788	2233	0.035	0
788	2287	0.036	0
788	2396	0.037	0
788	2587	0.04	0
788	2590	0.04	0
788	2626	0.041	0
788	2704	0.042	0
788	2916	0.045	0
788	2919	0.045	0
788	2953	0.046	0
788	3019	0.047	0
788	3276	0.05	0
788	3281	0.05	0
788	3316	0.051	0
788	3383	0.052	0
788	3639	0.055	0
788	3644	0.055	0
788	3717	0.056	0
788	3851	0.057	0
788	3987	0.058	0
788	4403	0.064	0
788	5082	0.077	0
788	5372	0.082	0
788	5662	0.087	0
788	5857	0.092	0
788	5913	0.092	0
788	6117	0.096	0
788	6162	0.097	0
788	6170	0.097	0
788	6341	0.099	0
788	6427	0.101	0
788	6486	0.102	0
788	6489	0.102	0
788	6628	0.104	0
788	6807	0.107	0
788	6914	0.109	0
788	7057	0.112	0
788	7146	0.114	0
788	7313	0.117	0
788	7380	0.119	0
788	7558	0.122	0
788	7625	0.124	0
788	7755	0.127	0
788	7870	0.129	0
788	7980	0.132	0
788	8115	0.134	0
788	8205	0.137	0
788	8312	0.139	0
788	8450	0.142	0
788	8537	0.144	0
788	8695	0.147	0
788	8762	0.149	0
788	8940	0.152	0
788	9007	0.154	0
788	9137	0.157	0
788	9252	0.159	0
788	9362	0.162	0
788	9497	0.164	0
788	9587	0.167	0
788	9694	0.169	0
788	9832	0.172	0
788	9919	0.174	0
788	10077	0.177	0
788	10144	0.179	0
788	10322	0.182	0
788	10389	0.184	0
788	10519	0.187	0
788	10634	0.189	0
788	10744	0.192	0
788	10879	0.194	0
788	10969	0.197	0
788	11076	0.199	0
788	11230	0.202	0
788	11317	0.204	0
788	11475	0.207	0
788	12037	0.209	0
788	12215	0.212	0
788	12282	0.214	0
788	12412	0.217	0
788	12527	0.219	0
788	12637	0.222	0
788	12772	0.224	0
788	12862	0.227	0
788	12969	0.229	0
788	13107	0.232	0
788	13194	0.234	0
788	13352	0.237	0
788	13419	0.239	0
788	13597	0.242	0
788	13664	0.244	0
788	13794	0.247	0
788	13909	0.249	0
788	14019	0.252	0
788	14154	0.254	0
788	14244	0.257	0
788	14846	0.259	0
788	14984	0.262	0
788	15071	0.264	0
788	15229	0.267	0
788	15296	0.269	0
788	15474	0.272	0
788	15541	0.274	0
788	15671	0.277	0
788	15786	0.279	0
788	15896	0.282	0
788	16031	0.284	0
788	16121	0.287	0
788	16228	0.289	0
788	16366	0.292	0
788	16453	0.294	0
788	16611	0.297	0
788	16678	0.299	0
788	16872	0.302	0
788	16939	0.304	0
788	17069	0.307	0
788	17184	0.309	0
788	17294	0.312	0
788	17429	0.314	0
788	17519	0.317	0
788	17626	0.319	0
788	17764	0.322	0
788	17851	0.324	0
788	18009	0.327	0
788	18076	0.329	0
788	18254	0.332	0
788	18321	0.334	0
788	18451	0.337	0
788	18566	0.339	0
788	18676	0.342	0
788	18811	0.344	0
788	18901	0.347	0
788	19008	0.349	0
788	19146	0.352	0
788	19233	0.354	0
788	19391	0.357	0
788	19458	0.359	0
788	19636	0.362	0
788	19703	0.364	0
788	19833	0.367	0
788	19948	0.369	0
788	20058	0.372	0
788	20193	0.374	0
788	20283	0.377	0
788	20390	0.379	0
788	20528	0.382	0
788	20615	0.384	0
788	20773	0.387	0
788	20840	0.389	0
788	21018	0.392	0
788	21085	0.394	0
788	21215	0.397	0
788	21330	0.399	0
788	21456	0.402	0
788	21591	0.404	0
788	21681	0.407	0
788	21796	0.409	0
788	21934	0.412	0
788	22021	0.414	0
788	22179	0.417	0
788	22246	0.419	0
788	22424	0.422	0
788	22491	0.424	0
788	22621	0.427	0
788	22736	0.429	0
788	22846	0.432	0
788	22981	0.434	0
788	23071	0.437	0
788	23178	0.439	0
788	23316	0.442	0
788	23403	0.444	0
788	23561	0.447	0
788	23628	0.449	0
788	23806	0.452	0
788	23873	0.454	0
788	24003	0.457	0
788	24126	0.459	0
788	24236	0.462	0
788	24371	0.464	0
788	24461	0.467	0
788	24568	0.469	0
788	24706	0.472	0
788	24793	0.474	0
788	24951	0.477	0
788	25018	0.479	0
788	25196	0.482	0
788	25263	0.484	0
788	25393	0.487	0
788	25508	0.489	0
788	25618	0.492	0
788	25753	0.494	0
788	25843	0.497	0
788	25950	0.499	0
788	26104	0.502	0
788	26191	0.504	0
788	26349	0.507	0
788	26416	0.509	0
788	26594	0.512	0
788	26661	0.514	0
788	26791	0.517	0
788	26906	0.519	0
788	27016	0.522	0
788	27151	0.524	0
788	27241	0.527	0
788	27348	0.529	0
788	27486	0.532	0
788	27573	0.534	0
788	27731	0.537	0
788	27798	0.539	0
788	27976	0.542	0
788	28043	0.544	0
788	28173	0.547	0
788	28288	0.549	0
788	28398	0.552	0
788	28533	0.554	0
788	28623	0.557	0
788	28730	0.559	0
788	28868	0.562	0
788	28955	0.564	0
788	29113	0.567	0
788	29180	0.569	0
788	29358	0.572	0
788	29425	0.574	0
788	29555	0.577	0
788	29670	0.579	0
788	29780	0.582	0
788	29915	0.584	0
788	30005	0.587	0
788	30112	0.589	0
788	30250	0.592	0
788	30337	0.594	0
788	30495	0.597	0
788	30562	0.599	0
788	30756	0.602	0
788	30823	0.604	0
788	30953	0.607	0
788	31068	0.609	0
788	31178	0.612	0
788	31313	0.614	0
788	31403	0.617	0
788	31510	0.619	0
788	31648	0.622	0
788	31735	0.624	0
788	31893	0.627	0
788	31960	0.629	0
788	32138	0.632	0
788	32205	0.634	0
788	32335	0.637	0
788	32450	0.639	0
788	32560	0.642	0
788	32695	0.644	0
788	32785	0.647	0
788	32892	0.649	0
788	33030	0.652	0
788	33117	0.654	0
788	33275	0.657	0
788	33342	0.659	0
788	33520	0.662	0
788	33587	0.664	0
788	33717	0.667	0
788	33832	0.669	0
788	33942	0.672	0
788	34077	0.674	0
788	34167	0.677	0
788	34274	0.679	0
788	34412	0.682	0
788	34499	0.684	0
788	34657	0.687	0
788	34724	0.689	0
788	34902	0.692	0
788	34969	0.694	0
788	35099	0.697	0
788	35214	0.699	0
788	35340	0.702	0
788	35475	0.704	0
788	35565	0.707	0
788	35672	0.709	0
788	35810	0.712	0
788	35897	0.714	0
788	36055	0.717	0
788	36122	0.719	0
788	36300	0.722	0
788	36367	0.724	0
788	36497	0.727	0
788	36612	0.729	0
788	36722	0.732	0
788	36857	0.734	0
788	36947	0.737	0
788	37054	0.739	0
788	37192	0.742	0
788	37279	0.744	0
788	37437	0.747	0
788	37504	0.749	0
788	37682	0.752	0
788	37749	0.754	0
788	37879	0.757	0
788	37994	0.759	0
788	38104	0.762	0
788	38239	0.764	0
788	38329	0.767	0
788	38436	0.769	0
788	38574	0.772	0
788	38661	0.774	0
788	38819	0.777	0
788	38886	0.779	0
788	39064	0.782	0
788	39131	0.784	0
788	39261	0.787	0
788	39376	0.789	0
788	39486	0.792	0
788	39621	0.794	0
788	39711	0.797	0
788	39818	0.799	0
788	39972	0.802	0
788	40059	0.804	0
788	40217	0.807	0
788	40284	0.809	0
788	40462	0.812	0
788	40529	0.814	0
788	40659	0.817	0
788	40774	0.819	0
788	40884	0.822	0
788	41019	0.824	0
788	41109	0.827	0
788	41216	0.829	0
788	41354	0.832	0
788	41441	0.834	0
788	41599	0.837	0
788	41666	0.839	0
788	41844	0.842	0
788	41911	0.844	0
788	42041	0.847	0
788	42156	0.849	0
788	42266	0.852	0
792	2475	0.038	1
792	2812	0.043	2
792	3102	0.048	3
792	3457	0.053	4
792	3990	0.058	5
792	5189	0.079	6
792	5459	0.084	7
792	5729	0.089	8
792	6034	0.094	9
793	1166	0.017	1
793	1448	0.022	2
793	1760	0.027	3
793	2077	0.032	4
793	2402	0.037	5
793	2541	0.039	6
793	2710	0.042	7
793	2712	0.042	8
793	2883	0.044	9
793	3025	0.047	10
793	3027	0.047	11
793	3215	0.049	12
793	3389	0.052	13
793	3391	0.052	14
793	3539	0.054	15
793	3858	0.057	16
793	3860	0.057	17
793	4031	0.059	18
793	4094	0.06	19
793	4499	0.066	20
807	0	0	1
813	997	0.013169782835	44
816	997	0.013169782835	45
817	1000	0.013169782835	45
817	1213	0.018	0
817	1475	0.023	0
817	1537	0.024	47
818	1130	0.016	0
818	1161	0.017	0
818	1401	0.021	0
818	1443	0.022	0
818	1483	0.023	0
818	1485	0.023	0
818	1803	0.028	0
818	1807	0.028	0
818	1858	0.029	0
819	1209	0.018	0
819	1471	0.023	0
819	1533	0.024	0
820	1031	0.014	0
820	1218	0.018	0
820	1300	0.019	0
820	1480	0.023	0
820	1542	0.024	0
839	0	0	1
1319	903	0.012270864309	7504
1320	903	0.012270864309	7504
1322	903	0.012270864309	0
1333	903	0.012270864309	0
1343	994	0.013169782835	7504
1344	994	0.013169782835	7504
1346	994	0.013169782835	0
1357	994	0.013169782835	0
1367	1002	0.013528948517	7504
1368	1002	0.013528948517	7504
1370	1002	0.013528948517	0
1381	1002	0.013528948517	0
1391	1406	0.021843716542	7504
1392	1406	0.021843716542	7504
1394	1406	0.021843716542	0
1405	1406	0.021843716542	0
1415	1553	0.024352218178	7504
1416	1553	0.024352218178	7504
1418	1553	0.024352218178	0
1429	1553	0.024352218178	0
1439	1654	0.025271030879	7504
1440	1654	0.025271030879	7504
1442	1654	0.025271030879	0
1453	1654	0.025271030879	0
1463	2079	0.032546852513	7504
1464	2079	0.032546852513	7504
1466	2079	0.032546852513	0
1477	2079	0.032546852513	0
1487	2175	0.034129833705	7504
1488	2175	0.034129833705	7504
1490	2175	0.034129833705	0
1501	2175	0.034129833705	0
1511	2183	0.034439526021	7504
1512	2183	0.034439526021	7504
1514	2183	0.034439526021	0
1525	2183	0.034439526021	0
1535	2404	0.037261432968	7504
1536	2404	0.037261432968	7504
1538	2404	0.037261432968	0
1549	2404	0.037261432968	0
1559	3036	0.047532676856	7504
1560	3036	0.047532676856	7504
1562	3036	0.047532676856	0
1573	3036	0.047532676856	0
1583	3109	0.048413756283	7504
1584	3109	0.048413756283	7504
1586	3109	0.048413756283	0
1597	3109	0.048413756283	0
1607	3333	0.051566809383	7504
1608	3333	0.051566809383	7504
1610	3333	0.051566809383	0
1621	3333	0.051566809383	0
1631	3393	0.05273845314	7504
1632	3393	0.05273845314	7504
1634	3393	0.05273845314	0
1645	3393	0.05273845314	0
1655	3401	0.052847558425	7504
1656	3401	0.052847558425	7504
1658	3401	0.052847558425	0
1669	3401	0.052847558425	0
1679	3943	0.057084039294	7504
1680	3943	0.057084039294	7504
1682	3943	0.057084039294	0
1693	3943	0.057084039294	0
1703	4170	0.061955560849	7504
1704	4170	0.061955560849	7504
1706	4170	0.061955560849	0
1717	4170	0.061955560849	0
1727	4406	0.064453871725	7504
1728	4406	0.064453871725	7504
1730	4406	0.064453871725	0
1741	4406	0.064453871725	0
1751	5018	0.075361895796	7504
1752	5018	0.075361895796	7504
1754	5018	0.075361895796	0
1765	5018	0.075361895796	0
1775	5830	0.091364573385	7504
1776	5830	0.091364573385	7504
1778	5830	0.091364573385	0
1789	5830	0.091364573385	0
