file 5945031 1580763940                                         
version 2
run CAIN-87-20200203-18:04:40-31970
attr configname CAIN
attr datetime 20200203-18:04:40
attr experiment CAIN
attr inifile omnetpp.ini
attr iterationvars "$0=170, $mob=\"./movements/RWPRPGM-0.5.movements\""
attr iterationvars2 "$0=170, $mob=\"./movements/RWPRPGM-0.5.movements\", $repetition=12"
attr measurement "$0=170, $mob=\"./movements/RWPRPGM-0.5.movements\""
attr mob "\"./movements/RWPRPGM-0.5.movements\""
attr network lte.simulations.networks.CAIN
attr processid 31970
attr repetition 12
attr replication #12
attr resultdir results
attr runnumber 87
attr seedset 12
param **.**.amcMode "\"AUTO\""
param **.amcMode "\"D2D\""
param **.cainNetwork true
param **.channelControl.alpha 1.0
param **.channelControl.carrierFrequency 2100e+6Hz
param **.channelControl.pMax 10W
param **.d2dCqi 7
param **.deployer.numRbDl 50
param **.deployer.numRbUl 50
param **.distThresh "${170..190 step 10}"
param **.fbDelay 1
param **.feedbackComputation "xmldoc(\"config_channel.xml\")"
param **.mobility.constraintAreaMaxX 1000m
param **.mobility.constraintAreaMaxY 1000m
param **.mobility.constraintAreaMaxZ 0m
param **.mobility.constraintAreaMinX 0m
param **.mobility.constraintAreaMinY 0m
param **.mobility.constraintAreaMinZ 0m
param **.nic.phy.channelModel "xmldoc(\"config_channel.xml\")"
param **.numBands 50
param **.pwrThresh -10
param **.qtdThresh 3
param **.rbAllocationType "\"localized\""
param **.routingRecorder.enabled false
param **.tcpApp[*].tClose -1s
param **.ueD2DTx[*].mobility.changeAngleBy "normal(0deg, 30deg)"
param **.ueD2DTx[*].mobility.changeInterval "normal(5s, 0.1s)"
param **.ueD2DTx[*].mobility.nodeId -1
param **.ueD2DTx[*].mobility.speed "normal(2mps, 0.01mps)"
param **.ueD2DTx[*].mobility.traceFile "${mob=\"./movements/RWP-0.0.movements\",\"./movements/RWP-0.5.movements\",\"./movements/RPGM-0.0.movements\",\"./movements/RPGM-0.5.movements\",\"./movements/RWPRPGM-0.0.movements\",\"./movements/RWPRPGM-0.5.movements\"}"
param **.ueD2DTx[*].mobilityType "\"BonnMotionMobility\""
param **.usePreconfiguredTxParams false
param *.eNodeB.d2dCapable false
param *.eNodeB.mobility.initFromDisplayString false
param *.eNodeB.mobility.initialX 300m
param *.eNodeB.mobility.initialY 300m
param *.eNodeB.nic.phy.enableD2DCqiReporting true
param *.eNodeB.txPower 19952.62315mw
param *.numUeCell 0
param *.numUeD2DRx 1
param *.numUeD2DTx 1
param *.ue*.macCellId 1
param *.ue*.masterId 1
param *.ue*.mobility.initFromDisplayString false
param *.ue*[0].macCellId 1
param *.ue*[0].masterId 1
param *.ue*[0].mobility.initFromDisplayString false
param *.ueD2D*.numTcpApps 1
param *.ueD2D*[*].d2dCapable true
param *.ueD2D*[0].d2dCapable false
param *.ueD2D*[0].numTcpApps 1
param *.ueD2DRx[0].mobility.initialX 310m
param *.ueD2DRx[0].mobility.initialY 350m
param *.ueD2DRx[0].tcpApp[*].localPort 1000
param *.ueD2DRx[0].tcpApp[*].typename "\"TCPSinkApp\""
param *.ueD2DTx*.tcpApp[*].connectAddress "\"ueD2DTx[0]\""
param *.ueD2DTx*.tcpApp[*].localAddress "\"ueD2DTx\""
param *.ueD2DTx*.tcpApp[*].localPort 1000
param *.ueD2DTx*.tcpApp[*].sendBytes 1GiB
param *.ueD2DTx*.tcpApp[*].typename "\"TCPSessionApp\""
param *.ueD2DTx*.tcpApp[0].active true
param *.ueD2DTx*.tcpApp[0].connectPort 1000
param *.ueD2DTx*.tcpApp[0].tOpen uniform(0.010s,0.1s)
param *.ueD2DTx*.tcpApp[0].tSend uniform(0.15s,0.5s)
param *.ueD2DTx[0].mobility.initialX 290m
param *.ueD2DTx[0].mobility.initialY 350m
param *.ueD2DTx[0].nic.d2dPeerAddresses "\"ueD2DTx[1]\""
param *.ueD2DTx[0].tcpApp[*].localPort 1000
param *.ueD2DTx[0].tcpApp[*].sendBytes 1GiB
param *.ueD2DTx[0].tcpApp[*].typename "\"TCPSessionApp\""
param *.ueD2DTx[0].tcpApp[0].active true
param *.ueD2DTx[0].tcpApp[0].connectAddress "\"ueD2DRx[0]\""
param *.ueD2DTx[0].tcpApp[0].connectPort 1000
param *.ueD2DTx[0].tcpApp[0].localAddress "\"ueD2DTx[0]\""
param *.ueD2DTx[0].tcpApp[0].tOpen uniform(0.010s,0.1s)
param *.ueD2DTx[0].tcpApp[0].tSend uniform(0.15s,0.5s)
param *.ueD2DTx[1].nic.d2dPeerAddresses "\"ueD2DTx[0]\""

vector 8  CAIN.server.ppp[0].queue  queueLength:vector  ETV
attr interpolationmode  sample-hold
attr title  "queue length, vector"
vector 9  CAIN.server.ppp[0].ppp  txState:vector  ETV
attr interpolationmode  sample-hold
attr title  "tx state, vector"
vector 24  CAIN.router.ppp[0].queue  queueLength:vector  ETV
attr interpolationmode  sample-hold
attr title  "queue length, vector"
vector 25  CAIN.router.ppp[0].ppp  txState:vector  ETV
attr interpolationmode  sample-hold
attr title  "tx state, vector"
vector 35  CAIN.router.ppp[1].queue  queueLength:vector  ETV
attr interpolationmode  sample-hold
attr title  "queue length, vector"
vector 36  CAIN.router.ppp[1].ppp  txState:vector  ETV
attr interpolationmode  sample-hold
attr title  "tx state, vector"
vector 56  CAIN.pgw.ppp[0].queue  queueLength:vector  ETV
attr interpolationmode  sample-hold
attr title  "queue length, vector"
vector 57  CAIN.pgw.ppp[0].ppp  txState:vector  ETV
attr interpolationmode  sample-hold
attr title  "tx state, vector"
vector 67  CAIN.pgw.pppInterface.queue  queueLength:vector  ETV
attr interpolationmode  sample-hold
attr title  "queue length, vector"
vector 68  CAIN.pgw.pppInterface.ppp  txState:vector  ETV
attr interpolationmode  sample-hold
attr title  "tx state, vector"
vector 104  CAIN.eNodeB.pppIf.queue  queueLength:vector  ETV
attr interpolationmode  sample-hold
attr title  "queue length, vector"
vector 105  CAIN.eNodeB.pppIf.ppp  txState:vector  ETV
attr interpolationmode  sample-hold
attr title  "tx state, vector"
vector 138  CAIN.ueD2DTx[0].nic.phy  servingCell:vector  ETV
attr source  servingCell
attr title  "ID of the serving eNodeB for the UE, vector"
attr unit  ""
vector 165  CAIN.ueD2DTx[1].nic.phy  servingCell:vector  ETV
attr source  servingCell
attr title  "ID of the serving eNodeB for the UE, vector"
attr unit  ""
vector 192  CAIN.ueD2DTx[2].nic.phy  servingCell:vector  ETV
attr source  servingCell
attr title  "ID of the serving eNodeB for the UE, vector"
attr unit  ""
vector 219  CAIN.ueD2DTx[3].nic.phy  servingCell:vector  ETV
attr source  servingCell
attr title  "ID of the serving eNodeB for the UE, vector"
attr unit  ""
vector 246  CAIN.ueD2DTx[4].nic.phy  servingCell:vector  ETV
attr source  servingCell
attr title  "ID of the serving eNodeB for the UE, vector"
attr unit  ""
vector 85  CAIN.eNodeB.nic.mac  receivedPacketFromLowerLayer:vector(packetBytes)  ETV
attr interpolationmode  none
attr source  receivedPacketFromLowerLayer
vector 264  CAIN.ueD2DTx[1].tcp  tcpRcvQueueBytes  ETV
vector 251  CAIN.ueD2DTx[1].tcp  "advertised window"  ETV
vector 250  CAIN.ueD2DTx[1].tcp  "receive window"  ETV
vector 253  CAIN.ueD2DTx[1].tcp  "sent ack"  ETV
vector 144  CAIN.ueD2DTx[1].nic.pdcpRrc  receivedPacketFromUpperLayer:vector(packetBytes)  ETV
attr interpolationmode  none
attr source  receivedPacketFromUpperLayer
vector 147  CAIN.ueD2DTx[1].nic.pdcpRrc  sentPacketToLowerLayer:vector(packetBytes)  ETV
attr interpolationmode  none
attr source  sentPacketToLowerLayer
vector 148  CAIN.ueD2DTx[1].nic.mac  receivedPacketFromUpperLayer:vector(packetBytes)  ETV
attr interpolationmode  none
attr source  receivedPacketFromUpperLayer
vector 151  CAIN.ueD2DTx[1].nic.mac  sentPacketToLowerLayer:vector(packetBytes)  ETV
attr interpolationmode  none
attr source  sentPacketToLowerLayer
vector 96  CAIN.eNodeB.nic.mac  racpkt:vector  ETV
attr interpolationmode  none
attr title  "eNB received racpkt message, vector"
vector 97  CAIN.eNodeB.nic.mac  racDistanceSignal:vector  ETV
attr interpolationmode  none
attr title  "Rac distance to enb, vector"
vector 87  CAIN.eNodeB.nic.mac  sentPacketToLowerLayer:vector(packetBytes)  ETV
attr interpolationmode  none
attr source  sentPacketToLowerLayer
vector 149  CAIN.ueD2DTx[1].nic.mac  receivedPacketFromLowerLayer:vector(packetBytes)  ETV
attr interpolationmode  none
attr source  receivedPacketFromLowerLayer
vector 160  CAIN.ueD2DTx[1].nic.mac  racpkt:vector  ETV
attr interpolationmode  none
attr title  "eNB received racpkt message, vector"
vector 161  CAIN.ueD2DTx[1].nic.mac  racDistanceSignal:vector  ETV
attr interpolationmode  none
attr title  "Rac distance to enb, vector"
vector 176  CAIN.ueD2DTx[2].nic.mac  receivedPacketFromLowerLayer:vector(packetBytes)  ETV
attr interpolationmode  none
attr source  receivedPacketFromLowerLayer
vector 187  CAIN.ueD2DTx[2].nic.mac  racpkt:vector  ETV
attr interpolationmode  none
attr title  "eNB received racpkt message, vector"
vector 188  CAIN.ueD2DTx[2].nic.mac  racDistanceSignal:vector  ETV
attr interpolationmode  none
attr title  "Rac distance to enb, vector"
vector 178  CAIN.ueD2DTx[2].nic.mac  sentPacketToLowerLayer:vector(packetBytes)  ETV
attr interpolationmode  none
attr source  sentPacketToLowerLayer
vector 203  CAIN.ueD2DTx[3].nic.mac  receivedPacketFromLowerLayer:vector(packetBytes)  ETV
attr interpolationmode  none
attr source  receivedPacketFromLowerLayer
vector 214  CAIN.ueD2DTx[3].nic.mac  racpkt:vector  ETV
attr interpolationmode  none
attr title  "eNB received racpkt message, vector"
vector 215  CAIN.ueD2DTx[3].nic.mac  racDistanceSignal:vector  ETV
attr interpolationmode  none
attr title  "Rac distance to enb, vector"
vector 205  CAIN.ueD2DTx[3].nic.mac  sentPacketToLowerLayer:vector(packetBytes)  ETV
attr interpolationmode  none
attr source  sentPacketToLowerLayer
vector 122  CAIN.ueD2DTx[0].nic.mac  receivedPacketFromLowerLayer:vector(packetBytes)  ETV
attr interpolationmode  none
attr source  receivedPacketFromLowerLayer
vector 133  CAIN.ueD2DTx[0].nic.mac  racpkt:vector  ETV
attr interpolationmode  none
attr title  "eNB received racpkt message, vector"
vector 134  CAIN.ueD2DTx[0].nic.mac  racDistanceSignal:vector  ETV
attr interpolationmode  none
attr title  "Rac distance to enb, vector"
vector 124  CAIN.ueD2DTx[0].nic.mac  sentPacketToLowerLayer:vector(packetBytes)  ETV
attr interpolationmode  none
attr source  sentPacketToLowerLayer
vector 230  CAIN.ueD2DTx[4].nic.mac  receivedPacketFromLowerLayer:vector(packetBytes)  ETV
attr interpolationmode  none
attr source  receivedPacketFromLowerLayer
vector 241  CAIN.ueD2DTx[4].nic.mac  racpkt:vector  ETV
attr interpolationmode  none
attr title  "eNB received racpkt message, vector"
vector 242  CAIN.ueD2DTx[4].nic.mac  racDistanceSignal:vector  ETV
attr interpolationmode  none
attr title  "Rac distance to enb, vector"
vector 232  CAIN.ueD2DTx[4].nic.mac  sentPacketToLowerLayer:vector(packetBytes)  ETV
attr interpolationmode  none
attr source  sentPacketToLowerLayer
vector 93  CAIN.eNodeB.nic.mac  ServedDevs:vector  ETV
attr interpolationmode  none
attr title  "# of devices served on cain forwarding, vector"
vector 91  CAIN.eNodeB.nic.mac  DistanceSignal:vector  ETV
attr interpolationmode  none
attr title  "Distance to enb, vector"
vector 89  CAIN.eNodeB.nic.mac  CainMessage:vector  ETV
attr interpolationmode  none
attr title  "eNB received CAIN message, vector"
vector 92  CAIN.eNodeB.nic.mac  HopDistanceSignal:vector  ETV
attr interpolationmode  none
attr title  "Distance to enb with hop forwarding, vector"
vector 90  CAIN.eNodeB.nic.mac  CainHopMessage:vector  ETV
attr interpolationmode  none
attr title  "eNB received CAIN hop message, vector"
vector 288  CAIN.ueD2DTx[3].tcp  tcpRcvQueueBytes  ETV
vector 275  CAIN.ueD2DTx[3].tcp  "advertised window"  ETV
vector 274  CAIN.ueD2DTx[3].tcp  "receive window"  ETV
vector 277  CAIN.ueD2DTx[3].tcp  "sent ack"  ETV
vector 198  CAIN.ueD2DTx[3].nic.pdcpRrc  receivedPacketFromUpperLayer:vector(packetBytes)  ETV
attr interpolationmode  none
attr source  receivedPacketFromUpperLayer
vector 201  CAIN.ueD2DTx[3].nic.pdcpRrc  sentPacketToLowerLayer:vector(packetBytes)  ETV
attr interpolationmode  none
attr source  sentPacketToLowerLayer
vector 202  CAIN.ueD2DTx[3].nic.mac  receivedPacketFromUpperLayer:vector(packetBytes)  ETV
attr interpolationmode  none
attr source  receivedPacketFromUpperLayer
vector 312  CAIN.ueD2DTx[4].tcp  tcpRcvQueueBytes  ETV
vector 299  CAIN.ueD2DTx[4].tcp  "advertised window"  ETV
vector 298  CAIN.ueD2DTx[4].tcp  "receive window"  ETV
vector 301  CAIN.ueD2DTx[4].tcp  "sent ack"  ETV
vector 225  CAIN.ueD2DTx[4].nic.pdcpRrc  receivedPacketFromUpperLayer:vector(packetBytes)  ETV
attr interpolationmode  none
attr source  receivedPacketFromUpperLayer
vector 228  CAIN.ueD2DTx[4].nic.pdcpRrc  sentPacketToLowerLayer:vector(packetBytes)  ETV
attr interpolationmode  none
attr source  sentPacketToLowerLayer
vector 229  CAIN.ueD2DTx[4].nic.mac  receivedPacketFromUpperLayer:vector(packetBytes)  ETV
attr interpolationmode  none
attr source  receivedPacketFromUpperLayer
vector 204  CAIN.ueD2DTx[3].nic.mac  sentPacketToUpperLayer:vector(packetBytes)  ETV
attr interpolationmode  none
attr source  sentPacketToUpperLayer
vector 231  CAIN.ueD2DTx[4].nic.mac  sentPacketToUpperLayer:vector(packetBytes)  ETV
attr interpolationmode  none
attr source  sentPacketToUpperLayer
vector 99  CAIN.eNodeB.nic.phy  averageCqiUlvect:vector  ETV
attr source  averageCqiUlvect
attr title  "Average Cqi reported in UL, vector"
attr unit  cqi
vector 86  CAIN.eNodeB.nic.mac  sentPacketToUpperLayer:vector(packetBytes)  ETV
attr interpolationmode  none
attr source  sentPacketToUpperLayer
vector 81  CAIN.eNodeB.nic.pdcpRrc  receivedPacketFromLowerLayer:vector(packetBytes)  ETV
attr interpolationmode  none
attr source  receivedPacketFromLowerLayer
vector 82  CAIN.eNodeB.nic.pdcpRrc  sentPacketToUpperLayer:vector(packetBytes)  ETV
attr interpolationmode  none
attr source  sentPacketToUpperLayer
vector 80  CAIN.eNodeB.nic.pdcpRrc  receivedPacketFromUpperLayer:vector(packetBytes)  ETV
attr interpolationmode  none
attr source  receivedPacketFromUpperLayer
vector 83  CAIN.eNodeB.nic.pdcpRrc  sentPacketToLowerLayer:vector(packetBytes)  ETV
attr interpolationmode  none
attr source  sentPacketToLowerLayer
vector 84  CAIN.eNodeB.nic.mac  receivedPacketFromUpperLayer:vector(packetBytes)  ETV
attr interpolationmode  none
attr source  receivedPacketFromUpperLayer
vector 88  CAIN.eNodeB.nic.mac  measuredItbs:vector  ETV
attr source  measuredItbs
attr title  "TBS index, vector"
attr unit  ""
vector 135  CAIN.ueD2DTx[0].nic.phy  averageCqiDlvect:vector  ETV
attr source  averageCqiDlvect
attr title  "Average Cqi reported in DL, vector"
attr unit  cqi
vector 162  CAIN.ueD2DTx[1].nic.phy  averageCqiDlvect:vector  ETV
attr source  averageCqiDlvect
attr title  "Average Cqi reported in DL, vector"
attr unit  cqi
vector 123  CAIN.ueD2DTx[0].nic.mac  sentPacketToUpperLayer:vector(packetBytes)  ETV
attr interpolationmode  none
attr source  sentPacketToUpperLayer
vector 118  CAIN.ueD2DTx[0].nic.pdcpRrc  receivedPacketFromLowerLayer:vector(packetBytes)  ETV
attr interpolationmode  none
attr source  receivedPacketFromLowerLayer
vector 119  CAIN.ueD2DTx[0].nic.pdcpRrc  sentPacketToUpperLayer:vector(packetBytes)  ETV
attr interpolationmode  none
attr source  sentPacketToUpperLayer
vector 150  CAIN.ueD2DTx[1].nic.mac  sentPacketToUpperLayer:vector(packetBytes)  ETV
attr interpolationmode  none
attr source  sentPacketToUpperLayer
vector 145  CAIN.ueD2DTx[1].nic.pdcpRrc  receivedPacketFromLowerLayer:vector(packetBytes)  ETV
attr interpolationmode  none
attr source  receivedPacketFromLowerLayer
vector 146  CAIN.ueD2DTx[1].nic.pdcpRrc  sentPacketToUpperLayer:vector(packetBytes)  ETV
attr interpolationmode  none
attr source  sentPacketToUpperLayer
vector 336  CAIN.ueD2DTx[0].tcp  tcpRcvQueueBytes  ETV
vector 323  CAIN.ueD2DTx[0].tcp  "advertised window"  ETV
vector 322  CAIN.ueD2DTx[0].tcp  "receive window"  ETV
vector 325  CAIN.ueD2DTx[0].tcp  "sent ack"  ETV
vector 117  CAIN.ueD2DTx[0].nic.pdcpRrc  receivedPacketFromUpperLayer:vector(packetBytes)  ETV
attr interpolationmode  none
attr source  receivedPacketFromUpperLayer
vector 120  CAIN.ueD2DTx[0].nic.pdcpRrc  sentPacketToLowerLayer:vector(packetBytes)  ETV
attr interpolationmode  none
attr source  sentPacketToLowerLayer
vector 121  CAIN.ueD2DTx[0].nic.mac  receivedPacketFromUpperLayer:vector(packetBytes)  ETV
attr interpolationmode  none
attr source  receivedPacketFromUpperLayer
vector 189  CAIN.ueD2DTx[2].nic.phy  averageCqiDlvect:vector  ETV
attr source  averageCqiDlvect
attr title  "Average Cqi reported in DL, vector"
attr unit  cqi
vector 177  CAIN.ueD2DTx[2].nic.mac  sentPacketToUpperLayer:vector(packetBytes)  ETV
attr interpolationmode  none
attr source  sentPacketToUpperLayer
vector 172  CAIN.ueD2DTx[2].nic.pdcpRrc  receivedPacketFromLowerLayer:vector(packetBytes)  ETV
attr interpolationmode  none
attr source  receivedPacketFromLowerLayer
vector 173  CAIN.ueD2DTx[2].nic.pdcpRrc  sentPacketToUpperLayer:vector(packetBytes)  ETV
attr interpolationmode  none
attr source  sentPacketToUpperLayer
vector 360  CAIN.ueD2DTx[2].tcp  tcpRcvQueueBytes  ETV
vector 347  CAIN.ueD2DTx[2].tcp  "advertised window"  ETV
vector 346  CAIN.ueD2DTx[2].tcp  "receive window"  ETV
vector 349  CAIN.ueD2DTx[2].tcp  "sent ack"  ETV
vector 171  CAIN.ueD2DTx[2].nic.pdcpRrc  receivedPacketFromUpperLayer:vector(packetBytes)  ETV
attr interpolationmode  none
attr source  receivedPacketFromUpperLayer
vector 174  CAIN.ueD2DTx[2].nic.pdcpRrc  sentPacketToLowerLayer:vector(packetBytes)  ETV
attr interpolationmode  none
attr source  sentPacketToLowerLayer
vector 175  CAIN.ueD2DTx[2].nic.mac  receivedPacketFromUpperLayer:vector(packetBytes)  ETV
attr interpolationmode  none
attr source  receivedPacketFromUpperLayer
8	17371 8 0 0 0 0 1 0 0 0 0
9	17379 8 0 0 0 0 1 0 0 0 0
24	17387 9 0 0 0 0 1 0 0 0 0
25	17396 9 0 0 0 0 1 0 0 0 0
35	17405 9 0 0 0 0 1 0 0 0 0
36	17414 9 0 0 0 0 1 0 0 0 0
56	17423 9 0 0 0 0 1 0 0 0 0
57	17432 9 0 0 0 0 1 0 0 0 0
67	17441 9 0 0 0 0 1 0 0 0 0
68	17450 9 0 0 0 0 1 0 0 0 0
80	17459 216 1231 283214 0.046 9.101 12 44 44 528 23232
81	17675 216 1221 283209 0.046 9.101 12 45 45 540 24300
82	17891 216 1221 283209 0.046 9.101 12 44 44 528 23232
83	18107 216 1231 283214 0.046 9.101 12 45 45 540 24300
84	18323 432 1237 283252 0.046 9.102 24 45 47 1104 50808
85	18755 393397 60 311048 0.002 9.999 22403 0 0 0 0
86	412152 420 1214 283248 0.046 9.102 24 0 47 564 26508
87	412572 248252 286 311015 0.023 9.999 14071 0 0 0 0
88	660824 216 1264 283248 0.047 9.102 12 26 26 312 8112
89	661040 249406 407 311048 0.027 9.999 12036 1 12036 72438666 581272002206
90	910446 164501 470 311048 0.029 9.999 8022 1 8022 32180253 172110719795
91	1074947 78851 407 310977 0.027 9.997 4014 85 424 641383 102976833
92	1153798 157586 470 311048 0.029 9.999 8022 149 224 1531043 300288621
93	1311384 70826 407 310977 0.027 9.997 4014 1 3 12000 35918
96	1382210 205985 286 311048 0.023 9.999 10030 1 10030 50305465 336392644455
97	1588195 187010 286 311048 0.023 9.999 10030 44 223 616169 41950543
99	1775205 213 1055 283089 0.043 9.098 12 15 15 180 2700
104	1775418 10 0 0 0 0 1 0 0 0 0
105	1775428 10 0 0 0 0 1 0 0 0 0
117	1775438 84 2179 282142 0.074202873551 9.074202873551 3 44 44 132 5808
118	1775522 114 1419 283372 0.051 9.106 6 45 45 270 12150
119	1775636 114 1419 283372 0.051 9.106 6 44 44 264 11616
120	1775750 84 2179 282142 0.074202873551 9.074202873551 3 45 45 135 6075
121	1775834 141 2182 282314 0.074202873551 9.079 6 45 47 276 12702
122	1775975 221170 348 311079 0.025 10 12042 0 0 0 0
123	1997145 168 1415 283368 0.051 9.106 9 0 47 282 13254
124	1997313 221170 348 311079 0.025 10 12042 0 0 0 0
133	2218483 257968 348 311079 0.025 10 12030 1 12030 72366465 580403171455
134	2476451 238996 348 311079 0.025 10 12030 85 224 1567879 235034755
135	2715447 114 1322 283296 0.048 9.103 6 15 15 90 1350
138	2715561 10 0 0 0 0 1 1 1 1 1
144	2715571 83 266 280196 0.021793187852 9.021793187852 3 44 44 132 5808
145	2715654 57 1427 281391 0.051 9.051 3 45 45 135 6075
146	2715711 57 1427 281391 0.051 9.051 3 44 44 132 5808
147	2715768 83 266 280196 0.021793187852 9.021793187852 3 45 45 135 6075
148	2715851 83 269 280199 0.021793187852 9.021793187852 3 45 45 135 6075
149	2715934 260776 307 311062 0.024 10 14047 0 0 0 0
150	2976710 57 1423 281387 0.051 9.051 3 47 47 141 6627
151	2976767 261945 272 311030 0.022 9.999 14050 0 0 0 0
160	3238712 261701 307 311030 0.024 9.999 12048 1 12048 72583176 583012264024
161	3500413 236654 307 311030 0.024 9.999 12048 0 154 912361 138229135
162	3737067 57 1324 281288 0.048 9.048 3 15 15 45 675
165	3737124 10 0 0 0 0 1 1 1 1 1
171	3737134 84 2878 282840 0.092235521143 9.092235521143 3 44 44 132 5808
172	3737218 57 2714 282677 0.088 9.088 3 45 45 135 6075
173	3737275 57 2714 282677 0.088 9.088 3 44 44 132 5808
174	3737332 84 2878 282840 0.092235521143 9.092235521143 3 45 45 135 6075
175	3737416 141 2881 283024 0.092235521143 9.097 6 45 47 276 12702
176	3737557 224671 316 311039 0.024 9.999 12051 0 0 0 0
177	3962228 111 2710 283020 0.088 9.097 6 0 47 141 6627
178	3962339 224671 316 311039 0.024 9.999 12051 0 0 0 0
187	4187010 261571 316 311039 0.024 9.999 12042 1 12042 72510903 582141699585
188	4448581 236554 316 311039 0.024 9.999 12042 0 223 1010016 169407010
189	4685135 57 2627 282590 0.085 9.085 3 15 15 45 675
192	4685192 10 0 0 0 0 1 1 1 1 1
198	4685202 83 726 280691 0.037594538601 9.037594538601 3 44 44 132 5808
201	4685285 83 726 280691 0.037594538601 9.037594538601 3 45 45 135 6075
202	4685368 139 729 280936 0.037594538601 9.042 6 45 47 276 12702
203	4685507 221061 339 311070 0.025 10 12036 0 0 0 0
204	4906568 53 968 280932 0.042 9.042 3 0 0 0 0
205	4906621 221060 339 311070 0.025 10 12036 0 0 0 0
214	5127681 257968 339 311070 0.025 10 12030 1 12030 72366465 580403171455
215	5385649 238996 339 311070 0.025 10 12030 44 224 1388669 223832629
219	5624645 10 0 0 0 0 1 1 1 1 1
225	5624655 83 734 280698 0.037865909024 9.037865909024 3 44 44 132 5808
228	5624738 83 734 280698 0.037865909024 9.037865909024 3 45 45 135 6075
229	5624821 139 737 280941 0.037865909024 9.042 6 45 47 276 12702
230	5624960 74895 378 310944 0.026 9.996 4017 0 0 0 0
231	5699855 53 973 280937 0.042 9.042 3 0 0 0 0
232	5699908 74894 378 310944 0.026 9.996 4017 0 0 0 0
241	5774802 85714 378 310944 0.026 9.996 4011 1 4011 8046066 21517862506
242	5860516 82807 378 310944 0.026 9.996 4011 85 169 640116 102438892
246	5943323 10 0 0 0 0 1 1 1 1 1
250	5943333 89 263 280193 0.021793187852 9.021793187852 3 7504 7504 22512 168930048
251	5943422 89 263 280193 0.021793187852 9.021793187852 3 7504 7504 22512 168930048
253	5943511 80 263 280193 0.021793187852 9.021793187852 3 0 0 0 0
264	5943591 80 263 280193 0.021793187852 9.021793187852 3 0 0 0 0
274	5943671 89 723 280688 0.037594538601 9.037594538601 3 7504 7504 22512 168930048
275	5943760 89 723 280688 0.037594538601 9.037594538601 3 7504 7504 22512 168930048
277	5943849 80 723 280688 0.037594538601 9.037594538601 3 0 0 0 0
288	5943929 80 723 280688 0.037594538601 9.037594538601 3 0 0 0 0
298	5944009 89 731 280695 0.037865909024 9.037865909024 3 7504 7504 22512 168930048
299	5944098 89 731 280695 0.037865909024 9.037865909024 3 7504 7504 22512 168930048
301	5944187 80 731 280695 0.037865909024 9.037865909024 3 0 0 0 0
312	5944267 80 731 280695 0.037865909024 9.037865909024 3 0 0 0 0
322	5944347 90 2176 282139 0.074202873551 9.074202873551 3 7504 7504 22512 168930048
323	5944437 90 2176 282139 0.074202873551 9.074202873551 3 7504 7504 22512 168930048
325	5944527 81 2176 282139 0.074202873551 9.074202873551 3 0 0 0 0
336	5944608 81 2176 282139 0.074202873551 9.074202873551 3 0 0 0 0
346	5944689 90 2875 282837 0.092235521143 9.092235521143 3 7504 7504 22512 168930048
347	5944779 90 2875 282837 0.092235521143 9.092235521143 3 7504 7504 22512 168930048
349	5944869 81 2875 282837 0.092235521143 9.092235521143 3 0 0 0 0
360	5944950 81 2875 282837 0.092235521143 9.092235521143 3 0 0 0 0
