                                                                
version 2
run MultiplePairs-TCP-D2D-0-20190807-14:21:45-5755
attr configname MultiplePairs-TCP-D2D
attr datetime 20190807-14:21:45
attr experiment MultiplePairs-TCP-D2D
attr inifile omnetpp.ini
attr iterationvars $numPairs=5
attr iterationvars2 "$numPairs=5, $repetition=0"
attr measurement $numPairs=5
attr network lte.simulations.networks.SingleCell_D2D
attr numPairs 5
attr processid 5755
attr repetition 0
attr replication #0
attr resultdir results
attr runnumber 0
attr seedset 0
param **.**.amcMode "\"AUTO\""
param **.amcMode "\"D2D\""
param **.channelControl.alpha 1.0
param **.channelControl.carrierFrequency 2100e+6Hz
param **.channelControl.pMax 10W
param **.d2dCqi 7
param **.deployer.numRbDl 50
param **.deployer.numRbUl 50
param **.fbDelay 1
param **.feedbackComputation "xmldoc(\"config_channel.xml\")"
param **.mobility.constraintAreaMaxZ 0m
param **.mobility.constraintAreaMinZ 0m
param **.nic.phy.channelModel "xmldoc(\"config_channel.xml\")"
param **.numBands 50
param **.rbAllocationType "\"localized\""
param **.routingRecorder.enabled false
param **.tcpApp[*].tClose -1s
param **.usePreconfiguredTxParams false
param *.eNodeB.d2dCapable false
param *.eNodeB.mobility.initFromDisplayString false
param *.eNodeB.mobility.initialX 300m
param *.eNodeB.mobility.initialY 300m
param *.eNodeB.nic.phy.enableD2DCqiReporting true
param *.numUeCell 0
param *.numUeD2DRx ${numPairs}
param *.numUeD2DTx ${numPairs=5,20,50}
param *.ue*[*].macCellId 1
param *.ue*[*].masterId 1
param *.ue*[*].mobility.initFromDisplayString false
param *.ueD2D*[*].d2dCapable true
param *.ueD2D*[*].mobility.initialX uniform(290m,310m)
param *.ueD2D*[*].mobility.initialY uniform(340m,350m)
param *.ueD2D*[*].numTcpApps 1
param *.ueD2D*[0].d2dCapable false
param *.ueD2DRx[*].nic.d2dPeerAddresses "\"ueD2DTx[\" + string(ancestorIndex(1)) + \"]\""
param *.ueD2DRx[*].tcpApp[*].localPort 1000
param *.ueD2DRx[*].tcpApp[*].typename "\"TCPSinkApp\""
param *.ueD2DTx[*].nic.d2dPeerAddresses "\"ueD2DRx[\" + string(ancestorIndex(1)) + \"]\""
param *.ueD2DTx[*].tcpApp[*].active true
param *.ueD2DTx[*].tcpApp[*].connectAddress "\"ueD2DRx[\" + string(ancestorIndex(1)) + \"]\""
param *.ueD2DTx[*].tcpApp[*].connectPort 1000
param *.ueD2DTx[*].tcpApp[*].localAddress "\"ueD2DTx[\" + string(ancestorIndex(1)) + \"]\""
param *.ueD2DTx[*].tcpApp[*].localPort 1000
param *.ueD2DTx[*].tcpApp[*].sendBytes 1GiB
param *.ueD2DTx[*].tcpApp[*].tOpen uniform(0.010s,0.1s)
param *.ueD2DTx[*].tcpApp[*].tSend uniform(0.15s,0.5s)
param *.ueD2DTx[*].tcpApp[*].typename "\"TCPSessionApp\""

vector 8  SingleCell_D2D.server.ppp[0].queue  queueLength:vector  ETV
attr interpolationmode  sample-hold
attr title  "queue length, vector"
vector 9  SingleCell_D2D.server.ppp[0].ppp  txState:vector  ETV
attr interpolationmode  sample-hold
attr title  "tx state, vector"
vector 24  SingleCell_D2D.router.ppp[0].queue  queueLength:vector  ETV
attr interpolationmode  sample-hold
attr title  "queue length, vector"
vector 25  SingleCell_D2D.router.ppp[0].ppp  txState:vector  ETV
attr interpolationmode  sample-hold
attr title  "tx state, vector"
vector 35  SingleCell_D2D.router.ppp[1].queue  queueLength:vector  ETV
attr interpolationmode  sample-hold
attr title  "queue length, vector"
vector 36  SingleCell_D2D.router.ppp[1].ppp  txState:vector  ETV
attr interpolationmode  sample-hold
attr title  "tx state, vector"
vector 56  SingleCell_D2D.pgw.ppp[0].queue  queueLength:vector  ETV
attr interpolationmode  sample-hold
attr title  "queue length, vector"
vector 57  SingleCell_D2D.pgw.ppp[0].ppp  txState:vector  ETV
attr interpolationmode  sample-hold
attr title  "tx state, vector"
vector 67  SingleCell_D2D.pgw.pppInterface.queue  queueLength:vector  ETV
attr interpolationmode  sample-hold
attr title  "queue length, vector"
vector 68  SingleCell_D2D.pgw.pppInterface.ppp  txState:vector  ETV
attr interpolationmode  sample-hold
attr title  "tx state, vector"
vector 96  SingleCell_D2D.eNodeB.pppIf.queue  queueLength:vector  ETV
attr interpolationmode  sample-hold