version 2
run D2DMulticast-1toM-0-20170312-18:03:36-19789
attr configname D2DMulticast-1toM
attr cqi 3
attr datetime 20170312-18:03:36
attr experiment D2DMulticast-1toM
attr inifile omnetpp.ini
attr iterationvars "$numUEs=50, $cqi=3"
attr iterationvars2 "$numUEs=50, $cqi=3, $repetition=0"
attr measurement "$numUEs=50, $cqi=3"
attr network lte.simulations.networks.SingleCell_D2DMulticast
attr numUEs 50
attr processid 19789
attr repetition 0
attr replication #0
attr resultdir results
attr runnumber 0
attr seedset 0
param **.amcMode "\"D2D\""
param **.channelControl.alpha 1.0
param **.channelControl.carrierFrequency 2100e+6Hz
param **.channelControl.pMax 10W
param **.d2dCqi ${cqi=3,5,7,9,11,13,15}
param **.deployer.numRbDl 50
param **.deployer.numRbUl 50
param **.fbDelay 1
param **.feedbackComputation "xmldoc(\"config_channel.xml\")"
param **.mobility.constraintAreaMaxZ 0m
param **.mobility.constraintAreaMinZ 0m
param **.nic.phy.channelModel "xmldoc(\"config_channel.xml\")"
param **.numBands 50
param **.rbAllocationType "\"localized\""
param **.routingRecorder.enabled false
param **.trickle.Imax 20s
param **.trickle.Imin 10s
param **.trickle.MaxMessages 5
param **.usePreconfiguredTxParams true
param *.eNodeB.d2dCapable true
param *.eNodeB.mobility.initFromDisplayString false
param *.eNodeB.mobility.initialX 300m
param *.eNodeB.mobility.initialY 300m
param *.eNodeB.nic.LteMacType "\"LteMacEnbD2D\""
param *.eNodeB.nic.rlc.LteRlcUmType "\"LteRlcUm\""
param *.numUeCell 0
param *.numUeD2D ${numUEs=50}
param *.ue*[*].macCellId 1
param *.ue*[*].masterId 1
param *.ue*[*].mobility.initFromDisplayString false
param *.ue*[*].mobility.initialX uniform(200m,400m)
param *.ue*[*].mobility.initialY uniform(200m,400m)
param *.ue*[*].nic.LteMacType "\"LteMacUeD2D\""
param *.ue*[*].nic.rlc.LteRlcUmType "\"LteRlcUm\""
param *.ueD2D[*].d2dCapable true
param *.ueD2D[*].numUdpApps 1
param *.ueD2D[0].udpApp[*].destAddress "\"224.0.0.10\""
param *.ueD2D[0].udpApp[*].destPort 1000
param *.ueD2D[0].udpApp[*].localPort 3088+ancestorIndex(0)
param *.ueD2D[0].udpApp[*].startTime uniform(0s,0.02s)
param *.ueD2D[0].udpApp[*].typename "\"AlertSender\""
param *.ueD2D[1..49].udpApp[*].localPort 1000
param *.ueD2D[1..49].udpApp[*].typename "\"AlertReceiver\""

vector 8  SingleCell_D2DMulticast.server.ppp[0].queue  queueLength:vector  ETV
attr interpolationmode  sample-hold
attr title  "queue length, vector"
vector 9  SingleCell_D2DMulticast.server.ppp[0].ppp  txState:vector  ETV
attr interpolationmode  sample-hold
attr title  "tx state, vector"
vector 24  SingleCell_D2DMulticast.router.ppp[0].queue  queueLength:vector  ETV
attr interpolationmode  sample-hold
attr title  "queue length, vector"
vector 25  SingleCell_D2DMulticast.router.ppp[0].ppp  txState:vector  ETV
attr interpolationmode  sample-hold
attr title  "tx state, vector"
vector 35  SingleCell_D2DMulticast.router.ppp[1].queue  queueLength:vector  ETV
attr interpolationmode  sample-hold
attr title  "queue length, vector"
vector 36  SingleCell_D2DMulticast.router.ppp[1].ppp  txState:vector  ETV
attr interpolationmode  sample-hold
attr title  "tx state, vector"
vector 56  SingleCell_D2DMulticast.pgw.ppp[0].queue  queueLength:vector  ETV
attr interpolationmode  sample-hold
attr title  "queue length, vector"
vector 57  SingleCell_D2DMulticast.pgw.ppp[0].ppp  txState:vector  ETV
attr interpolationmode  sample-hold
attr title  "tx state, vector"
vector 67  SingleCell_D2DMulticast.pgw.pppInterface.queue  queueLength:vector  ETV
attr interpolationmode  sample-hold
attr title  "queue length, vector"
vector 68  SingleCell_D2DMulticast.pgw.pppInterface.ppp  txState:vector  ETV
attr interpolationmode  sample-hold
attr title  "tx state, vector"
vector 95  SingleCell_D2DMulticast.eNodeB.ppp.queue  queueLength:vector  ETV
attr interpolationmode  sample-hold
attr title  "queue length, vector"
vector 96  SingleCell_D2DMulticast.eNodeB.ppp.ppp  txState:vector  ETV
attr interpolationmode  sample-hold
attr title  "tx state, vector"
vector 85  SingleCell_D2DMulticast.eNodeB.nic.mac  receivedPacketFromLowerLayer:vector(packetBytes)  ETV
attr interpolationmode  none
attr source  receivedPacketFromLowerLayer
vector 105  SingleCell_D2DMulticast.ueD2D[0].udpApp[0]  alertSentMsg:vector  ETV
attr source  alertSentMsg
attr title  "Alert messages sent, vector"
attr unit  ""
vector 106  SingleCell_D2DMulticast.ueD2D[0].udp  sentPk:vector(packetBytes)  ETV
attr interpolationmode  none
attr source  sentPk
attr title  "packets sent, vector(packetBytes)"
vector 111  SingleCell_D2DMulticast.ueD2D[0].nic.pdcpRrc  receivedPacketFromUpperLayer:vector(packetBytes)  ETV
attr interpolationmode  none
attr source  receivedPacketFromUpperLayer
vector 114  SingleCell_D2DMulticast.ueD2D[0].nic.pdcpRrc  sentPacketToLowerLayer:vector(packetBytes)  ETV
attr interpolationmode  none
attr source  sentPacketToLowerLayer
vector 115  SingleCell_D2DMulticast.ueD2D[0].nic.mac  receivedPacketFromUpperLayer:vector(packetBytes)  ETV
attr interpolationmode  none
attr source  receivedPacketFromUpperLayer
vector 118  SingleCell_D2DMulticast.ueD2D[0].nic.mac  sentPacketToLowerLayer:vector(packetBytes)  ETV
attr interpolationmode  none
attr source  sentPacketToLowerLayer
vector 87  SingleCell_D2DMulticast.eNodeB.nic.mac  sentPacketToLowerLayer:vector(packetBytes)  ETV
attr interpolationmode  none
attr source  sentPacketToLowerLayer
vector 116  SingleCell_D2DMulticast.ueD2D[0].nic.mac  receivedPacketFromLowerLayer:vector(packetBytes)  ETV
attr interpolationmode  none
attr source  receivedPacketFromLowerLayer
vector 90  SingleCell_D2DMulticast.eNodeB.nic.phy  averageCqiUlvect:vector  ETV
attr source  averageCqiUlvect
attr title  "Average Cqi reported in UL, vector"
attr unit  cqi
vector 88  SingleCell_D2DMulticast.eNodeB.nic.mac  measuredItbs:vector  ETV
attr source  measuredItbs
attr title  "TBS index, vector"
attr unit  ""
vector 138  SingleCell_D2DMulticast.ueD2D[1].nic.mac  receivedPacketFromLowerLayer:vector(packetBytes)  ETV
attr interpolationmode  none
attr source  receivedPacketFromLowerLayer
vector 160  SingleCell_D2DMulticast.ueD2D[2].nic.mac  receivedPacketFromLowerLayer:vector(packetBytes)  ETV
attr interpolationmode  none
attr source  receivedPacketFromLowerLayer
vector 182  SingleCell_D2DMulticast.ueD2D[3].nic.mac  receivedPacketFromLowerLayer:vector(packetBytes)  ETV
attr interpolationmode  none
attr source  receivedPacketFromLowerLayer
vector 204  SingleCell_D2DMulticast.ueD2D[4].nic.mac  receivedPacketFromLowerLayer:vector(packetBytes)  ETV
attr interpolationmode  none
attr source  receivedPacketFromLowerLayer
vector 226  SingleCell_D2DMulticast.ueD2D[5].nic.mac  receivedPacketFromLowerLayer:vector(packetBytes)  ETV
attr interpolationmode  none
attr source  receivedPacketFromLowerLayer
vector 248  SingleCell_D2DMulticast.ueD2D[6].nic.mac  receivedPacketFromLowerLayer:vector(packetBytes)  ETV
attr interpolationmode  none
attr source  receivedPacketFromLowerLayer
vector 270  SingleCell_D2DMulticast.ueD2D[7].nic.mac  receivedPacketFromLowerLayer:vector(packetBytes)  ETV
attr interpolationmode  none
attr source  receivedPacketFromLowerLayer
vector 292  SingleCell_D2DMulticast.ueD2D[8].nic.mac  receivedPacketFromLowerLayer:vector(packetBytes)  ETV
attr interpolationmode  none
attr source  receivedPacketFromLowerLayer
vector 314  SingleCell_D2DMulticast.ueD2D[9].nic.mac  receivedPacketFromLowerLayer:vector(packetBytes)  ETV
attr interpolationmode  none
attr source  receivedPacketFromLowerLayer
vector 336  SingleCell_D2DMulticast.ueD2D[10].nic.mac  receivedPacketFromLowerLayer:vector(packetBytes)  ETV
attr interpolationmode  none
attr source  receivedPacketFromLowerLayer
vector 358  SingleCell_D2DMulticast.ueD2D[11].nic.mac  receivedPacketFromLowerLayer:vector(packetBytes)  ETV
attr interpolationmode  none
attr source  receivedPacketFromLowerLayer
vector 380  SingleCell_D2DMulticast.ueD2D[12].nic.mac  receivedPacketFromLowerLayer:vector(packetBytes)  ETV
attr interpolationmode  none
attr source  receivedPacketFromLowerLayer
vector 402  SingleCell_D2DMulticast.ueD2D[13].nic.mac  receivedPacketFromLowerLayer:vector(packetBytes)  ETV
attr interpolationmode  none
attr source  receivedPacketFromLowerLayer
vector 424  SingleCell_D2DMulticast.ueD2D[14].nic.mac  receivedPacketFromLowerLayer:vector(packetBytes)  ETV
attr interpolationmode  none
attr source  receivedPacketFromLowerLayer
vector 446  SingleCell_D2DMulticast.ueD2D[15].nic.mac  receivedPacketFromLowerLayer:vector(packetBytes)  ETV
attr interpolationmode  none
attr source  receivedPacketFromLowerLayer
vector 468  SingleCell_D2DMulticast.ueD2D[16].nic.mac  receivedPacketFromLowerLayer:vector(packetBytes)  ETV
attr interpolationmode  none
attr source  receivedPacketFromLowerLayer
vector 490  SingleCell_D2DMulticast.ueD2D[17].nic.mac  receivedPacketFromLowerLayer:vector(packetBytes)  ETV
attr interpolationmode  none
attr source  receivedPacketFromLowerLayer
vector 512  SingleCell_D2DMulticast.ueD2D[18].nic.mac  receivedPacketFromLowerLayer:vector(packetBytes)  ETV
attr interpolationmode  none
attr source  receivedPacketFromLowerLayer
vector 534  SingleCell_D2DMulticast.ueD2D[19].nic.mac  receivedPacketFromLowerLayer:vector(packetBytes)  ETV
attr interpolationmode  none
attr source  receivedPacketFromLowerLayer
vector 556  SingleCell_D2DMulticast.ueD2D[20].nic.mac  receivedPacketFromLowerLayer:vector(packetBytes)  ETV
attr interpolationmode  none
attr source  receivedPacketFromLowerLayer
vector 578  SingleCell_D2DMulticast.ueD2D[21].nic.mac  receivedPacketFromLowerLayer:vector(packetBytes)  ETV
attr interpolationmode  none
attr source  receivedPacketFromLowerLayer
vector 600  SingleCell_D2DMulticast.ueD2D[22].nic.mac  receivedPacketFromLowerLayer:vector(packetBytes)  ETV
attr interpolationmode  none
attr source  receivedPacketFromLowerLayer
vector 622  SingleCell_D2DMulticast.ueD2D[23].nic.mac  receivedPacketFromLowerLayer:vector(packetBytes)  ETV
attr interpolationmode  none
attr source  receivedPacketFromLowerLayer
vector 644  SingleCell_D2DMulticast.ueD2D[24].nic.mac  receivedPacketFromLowerLayer:vector(packetBytes)  ETV
attr interpolationmode  none
attr source  receivedPacketFromLowerLayer
vector 666  SingleCell_D2DMulticast.ueD2D[25].nic.mac  receivedPacketFromLowerLayer:vector(packetBytes)  ETV
attr interpolationmode  none
attr source  receivedPacketFromLowerLayer
vector 688  SingleCell_D2DMulticast.ueD2D[26].nic.mac  receivedPacketFromLowerLayer:vector(packetBytes)  ETV
attr interpolationmode  none
attr source  receivedPacketFromLowerLayer
vector 710  SingleCell_D2DMulticast.ueD2D[27].nic.mac  receivedPacketFromLowerLayer:vector(packetBytes)  ETV
attr interpolationmode  none
attr source  receivedPacketFromLowerLayer
vector 732  SingleCell_D2DMulticast.ueD2D[28].nic.mac  receivedPacketFromLowerLayer:vector(packetBytes)  ETV
attr interpolationmode  none
attr source  receivedPacketFromLowerLayer
vector 754  SingleCell_D2DMulticast.ueD2D[29].nic.mac  receivedPacketFromLowerLayer:vector(packetBytes)  ETV
attr interpolationmode  none
attr source  receivedPacketFromLowerLayer
vector 776  SingleCell_D2DMulticast.ueD2D[30].nic.mac  receivedPacketFromLowerLayer:vector(packetBytes)  ETV
attr interpolationmode  none
attr source  receivedPacketFromLowerLayer
vector 798  SingleCell_D2DMulticast.ueD2D[31].nic.mac  receivedPacketFromLowerLayer:vector(packetBytes)  ETV
attr interpolationmode  none
attr source  receivedPacketFromLowerLayer
vector 820  SingleCell_D2DMulticast.ueD2D[32].nic.mac  receivedPacketFromLowerLayer:vector(packetBytes)  ETV
attr interpolationmode  none
attr source  receivedPacketFromLowerLayer
vector 842  SingleCell_D2DMulticast.ueD2D[33].nic.mac  receivedPacketFromLowerLayer:vector(packetBytes)  ETV
attr interpolationmode  none
attr source  receivedPacketFromLowerLayer
vector 864  SingleCell_D2DMulticast.ueD2D[34].nic.mac  receivedPacketFromLowerLayer:vector(packetBytes)  ETV
attr interpolationmode  none
attr source  receivedPacketFromLowerLayer
vector 886  SingleCell_D2DMulticast.ueD2D[35].nic.mac  receivedPacketFromLowerLayer:vector(packetBytes)  ETV
attr interpolationmode  none
attr source  receivedPacketFromLowerLayer
vector 908  SingleCell_D2DMulticast.ueD2D[36].nic.mac  receivedPacketFromLowerLayer:vector(packetBytes)  ETV
attr interpolationmode  none
attr source  receivedPacketFromLowerLayer
vector 930  SingleCell_D2DMulticast.ueD2D[37].nic.mac  receivedPacketFromLowerLayer:vector(packetBytes)  ETV
attr interpolationmode  none
attr source  receivedPacketFromLowerLayer
vector 952  SingleCell_D2DMulticast.ueD2D[38].nic.mac  receivedPacketFromLowerLayer:vector(packetBytes)  ETV
attr interpolationmode  none
attr source  receivedPacketFromLowerLayer
vector 974  SingleCell_D2DMulticast.ueD2D[39].nic.mac  receivedPacketFromLowerLayer:vector(packetBytes)  ETV
attr interpolationmode  none
attr source  receivedPacketFromLowerLayer
vector 996  SingleCell_D2DMulticast.ueD2D[40].nic.mac  receivedPacketFromLowerLayer:vector(packetBytes)  ETV
attr interpolationmode  none
attr source  receivedPacketFromLowerLayer
vector 1018  SingleCell_D2DMulticast.ueD2D[41].nic.mac  receivedPacketFromLowerLayer:vector(packetBytes)  ETV
attr interpolationmode  none
attr source  receivedPacketFromLowerLayer
vector 1040  SingleCell_D2DMulticast.ueD2D[42].nic.mac  receivedPacketFromLowerLayer:vector(packetBytes)  ETV
attr interpolationmode  none
attr source  receivedPacketFromLowerLayer
vector 1062  SingleCell_D2DMulticast.ueD2D[43].nic.mac  receivedPacketFromLowerLayer:vector(packetBytes)  ETV
attr interpolationmode  none
attr source  receivedPacketFromLowerLayer
vector 1084  SingleCell_D2DMulticast.ueD2D[44].nic.mac  receivedPacketFromLowerLayer:vector(packetBytes)  ETV
attr interpolationmode  none
attr source  receivedPacketFromLowerLayer
vector 1106  SingleCell_D2DMulticast.ueD2D[45].nic.mac  receivedPacketFromLowerLayer:vector(packetBytes)  ETV
attr interpolationmode  none
attr source  receivedPacketFromLowerLayer
vector 1128  SingleCell_D2DMulticast.ueD2D[46].nic.mac  receivedPacketFromLowerLayer:vector(packetBytes)  ETV
attr interpolationmode  none
attr source  receivedPacketFromLowerLayer
vector 1150  SingleCell_D2DMulticast.ueD2D[47].nic.mac  receivedPacketFromLowerLayer:vector(packetBytes)  ETV
attr interpolationmode  none
attr source  receivedPacketFromLowerLayer
vector 1172  SingleCell_D2DMulticast.ueD2D[48].nic.mac  receivedPacketFromLowerLayer:vector(packetBytes)  ETV
attr interpolationmode  none
attr source  receivedPacketFromLowerLayer
vector 1194  SingleCell_D2DMulticast.ueD2D[49].nic.mac  receivedPacketFromLowerLayer:vector(packetBytes)  ETV
attr interpolationmode  none
attr source  receivedPacketFromLowerLayer
vector 139  SingleCell_D2DMulticast.ueD2D[1].nic.mac  sentPacketToUpperLayer:vector(packetBytes)  ETV
attr interpolationmode  none
attr source  sentPacketToUpperLayer
vector 134  SingleCell_D2DMulticast.ueD2D[1].nic.pdcpRrc  receivedPacketFromLowerLayer:vector(packetBytes)  ETV
attr interpolationmode  none
attr source  receivedPacketFromLowerLayer
vector 135  SingleCell_D2DMulticast.ueD2D[1].nic.pdcpRrc  sentPacketToUpperLayer:vector(packetBytes)  ETV
attr interpolationmode  none
attr source  sentPacketToUpperLayer
vector 129  SingleCell_D2DMulticast.ueD2D[1].udp  rcvdPk:vector(packetBytes)  ETV
attr interpolationmode  none
attr source  rcvdPk
attr title  "packets received, vector(packetBytes)"
vector 130  SingleCell_D2DMulticast.ueD2D[1].udp  passedUpPk:vector(count)  ETV
attr interpolationmode  none
attr title  "packets passed up, vector(count)"
vector 126  SingleCell_D2DMulticast.ueD2D[1].udpApp[0]  alertDelay:vector  ETV
attr source  alertDelay
attr title  "Alert Message Delay, vector"
attr unit  s
vector 127  SingleCell_D2DMulticast.ueD2D[1].udpApp[0]  alertRcvdMsg:vector  ETV
attr source  alertRcvdMsg
attr title  "Alert Messages Received, vector"
attr unit  s
vector 161  SingleCell_D2DMulticast.ueD2D[2].nic.mac  sentPacketToUpperLayer:vector(packetBytes)  ETV
attr interpolationmode  none
attr source  sentPacketToUpperLayer
vector 156  SingleCell_D2DMulticast.ueD2D[2].nic.pdcpRrc  receivedPacketFromLowerLayer:vector(packetBytes)  ETV
attr interpolationmode  none
attr source  receivedPacketFromLowerLayer
vector 157  SingleCell_D2DMulticast.ueD2D[2].nic.pdcpRrc  sentPacketToUpperLayer:vector(packetBytes)  ETV
attr interpolationmode  none
attr source  sentPacketToUpperLayer
vector 151  SingleCell_D2DMulticast.ueD2D[2].udp  rcvdPk:vector(packetBytes)  ETV
attr interpolationmode  none
attr source  rcvdPk
attr title  "packets received, vector(packetBytes)"
vector 152  SingleCell_D2DMulticast.ueD2D[2].udp  passedUpPk:vector(count)  ETV
attr interpolationmode  none
attr title  "packets passed up, vector(count)"
vector 148  SingleCell_D2DMulticast.ueD2D[2].udpApp[0]  alertDelay:vector  ETV
attr source  alertDelay
attr title  "Alert Message Delay, vector"
attr unit  s
vector 149  SingleCell_D2DMulticast.ueD2D[2].udpApp[0]  alertRcvdMsg:vector  ETV
attr source  alertRcvdMsg
attr title  "Alert Messages Received, vector"
attr unit  s
vector 183  SingleCell_D2DMulticast.ueD2D[3].nic.mac  sentPacketToUpperLayer:vector(packetBytes)  ETV
attr interpolationmode  none
attr source  sentPacketToUpperLayer
vector 178  SingleCell_D2DMulticast.ueD2D[3].nic.pdcpRrc  receivedPacketFromLowerLayer:vector(packetBytes)  ETV
attr interpolationmode  none
attr source  receivedPacketFromLowerLayer
vector 179  SingleCell_D2DMulticast.ueD2D[3].nic.pdcpRrc  sentPacketToUpperLayer:vector(packetBytes)  ETV
attr interpolationmode  none
attr source  sentPacketToUpperLayer
vector 173  SingleCell_D2DMulticast.ueD2D[3].udp  rcvdPk:vector(packetBytes)  ETV
attr interpolationmode  none
attr source  rcvdPk
attr title  "packets received, vector(packetBytes)"
vector 174  SingleCell_D2DMulticast.ueD2D[3].udp  passedUpPk:vector(count)  ETV
attr interpolationmode  none
attr title  "packets passed up, vector(count)"
vector 170  SingleCell_D2DMulticast.ueD2D[3].udpApp[0]  alertDelay:vector  ETV
attr source  alertDelay
attr title  "Alert Message Delay, vector"
attr unit  s
vector 171  SingleCell_D2DMulticast.ueD2D[3].udpApp[0]  alertRcvdMsg:vector  ETV
attr source  alertRcvdMsg
attr title  "Alert Messages Received, vector"
attr unit  s
vector 205  SingleCell_D2DMulticast.ueD2D[4].nic.mac  sentPacketToUpperLayer:vector(packetBytes)  ETV
attr interpolationmode  none
attr source  sentPacketToUpperLayer
vector 200  SingleCell_D2DMulticast.ueD2D[4].nic.pdcpRrc  receivedPacketFromLowerLayer:vector(packetBytes)  ETV
attr interpolationmode  none
attr source  receivedPacketFromLowerLayer
vector 201  SingleCell_D2DMulticast.ueD2D[4].nic.pdcpRrc  sentPacketToUpperLayer:vector(packetBytes)  ETV
attr interpolationmode  none
attr source  sentPacketToUpperLayer
vector 195  SingleCell_D2DMulticast.ueD2D[4].udp  rcvdPk:vector(packetBytes)  ETV
attr interpolationmode  none
attr source  rcvdPk
attr title  "packets received, vector(packetBytes)"
vector 196  SingleCell_D2DMulticast.ueD2D[4].udp  passedUpPk:vector(count)  ETV
attr interpolationmode  none
attr title  "packets passed up, vector(count)"
vector 192  SingleCell_D2DMulticast.ueD2D[4].udpApp[0]  alertDelay:vector  ETV
attr source  alertDelay
attr title  "Alert Message Delay, vector"
attr unit  s
vector 193  SingleCell_D2DMulticast.ueD2D[4].udpApp[0]  alertRcvdMsg:vector  ETV
attr source  alertRcvdMsg
attr title  "Alert Messages Received, vector"
attr unit  s
vector 227  SingleCell_D2DMulticast.ueD2D[5].nic.mac  sentPacketToUpperLayer:vector(packetBytes)  ETV
attr interpolationmode  none
attr source  sentPacketToUpperLayer
vector 222  SingleCell_D2DMulticast.ueD2D[5].nic.pdcpRrc  receivedPacketFromLowerLayer:vector(packetBytes)  ETV
attr interpolationmode  none
attr source  receivedPacketFromLowerLayer
vector 223  SingleCell_D2DMulticast.ueD2D[5].nic.pdcpRrc  sentPacketToUpperLayer:vector(packetBytes)  ETV
attr interpolationmode  none
attr source  sentPacketToUpperLayer
vector 217  SingleCell_D2DMulticast.ueD2D[5].udp  rcvdPk:vector(packetBytes)  ETV
attr interpolationmode  none
attr source  rcvdPk
attr title  "packets received, vector(packetBytes)"
vector 218  SingleCell_D2DMulticast.ueD2D[5].udp  passedUpPk:vector(count)  ETV
attr interpolationmode  none
attr title  "packets passed up, vector(count)"
vector 214  SingleCell_D2DMulticast.ueD2D[5].udpApp[0]  alertDelay:vector  ETV
attr source  alertDelay
attr title  "Alert Message Delay, vector"
attr unit  s
vector 215  SingleCell_D2DMulticast.ueD2D[5].udpApp[0]  alertRcvdMsg:vector  ETV
attr source  alertRcvdMsg
attr title  "Alert Messages Received, vector"
attr unit  s
vector 249  SingleCell_D2DMulticast.ueD2D[6].nic.mac  sentPacketToUpperLayer:vector(packetBytes)  ETV
attr interpolationmode  none
attr source  sentPacketToUpperLayer
vector 244  SingleCell_D2DMulticast.ueD2D[6].nic.pdcpRrc  receivedPacketFromLowerLayer:vector(packetBytes)  ETV
attr interpolationmode  none
attr source  receivedPacketFromLowerLayer
vector 245  SingleCell_D2DMulticast.ueD2D[6].nic.pdcpRrc  sentPacketToUpperLayer:vector(packetBytes)  ETV
attr interpolationmode  none
attr source  sentPacketToUpperLayer
vector 239  SingleCell_D2DMulticast.ueD2D[6].udp  rcvdPk:vector(packetBytes)  ETV
attr interpolationmode  none
attr source  rcvdPk
attr title  "packets received, vector(packetBytes)"
vector 240  SingleCell_D2DMulticast.ueD2D[6].udp  passedUpPk:vector(count)  ETV
attr interpolationmode  none
attr title  "packets passed up, vector(count)"
vector 236  SingleCell_D2DMulticast.ueD2D[6].udpApp[0]  alertDelay:vector  ETV
attr source  alertDelay
attr title  "Alert Message Delay, vector"
attr unit  s
vector 237  SingleCell_D2DMulticast.ueD2D[6].udpApp[0]  alertRcvdMsg:vector  ETV
attr source  alertRcvdMsg
attr title  "Alert Messages Received, vector"
attr unit  s
vector 271  SingleCell_D2DMulticast.ueD2D[7].nic.mac  sentPacketToUpperLayer:vector(packetBytes)  ETV
attr interpolationmode  none
attr source  sentPacketToUpperLayer
vector 266  SingleCell_D2DMulticast.ueD2D[7].nic.pdcpRrc  receivedPacketFromLowerLayer:vector(packetBytes)  ETV
attr interpolationmode  none
attr source  receivedPacketFromLowerLayer
vector 267  SingleCell_D2DMulticast.ueD2D[7].nic.pdcpRrc  sentPacketToUpperLayer:vector(packetBytes)  ETV
attr interpolationmode  none
attr source  sentPacketToUpperLayer
vector 261  SingleCell_D2DMulticast.ueD2D[7].udp  rcvdPk:vector(packetBytes)  ETV
attr interpolationmode  none
attr source  rcvdPk
attr title  "packets received, vector(packetBytes)"
vector 262  SingleCell_D2DMulticast.ueD2D[7].udp  passedUpPk:vector(count)  ETV
attr interpolationmode  none
attr title  "packets passed up, vector(count)"
vector 258  SingleCell_D2DMulticast.ueD2D[7].udpApp[0]  alertDelay:vector  ETV
attr source  alertDelay
attr title  "Alert Message Delay, vector"
attr unit  s
vector 259  SingleCell_D2DMulticast.ueD2D[7].udpApp[0]  alertRcvdMsg:vector  ETV
attr source  alertRcvdMsg
attr title  "Alert Messages Received, vector"
attr unit  s
vector 293  SingleCell_D2DMulticast.ueD2D[8].nic.mac  sentPacketToUpperLayer:vector(packetBytes)  ETV
attr interpolationmode  none
attr source  sentPacketToUpperLayer
vector 288  SingleCell_D2DMulticast.ueD2D[8].nic.pdcpRrc  receivedPacketFromLowerLayer:vector(packetBytes)  ETV
attr interpolationmode  none
attr source  receivedPacketFromLowerLayer
vector 289  SingleCell_D2DMulticast.ueD2D[8].nic.pdcpRrc  sentPacketToUpperLayer:vector(packetBytes)  ETV
attr interpolationmode  none
attr source  sentPacketToUpperLayer
vector 283  SingleCell_D2DMulticast.ueD2D[8].udp  rcvdPk:vector(packetBytes)  ETV
attr interpolationmode  none
attr source  rcvdPk
attr title  "packets received, vector(packetBytes)"
vector 284  SingleCell_D2DMulticast.ueD2D[8].udp  passedUpPk:vector(count)  ETV
attr interpolationmode  none
attr title  "packets passed up, vector(count)"
vector 280  SingleCell_D2DMulticast.ueD2D[8].udpApp[0]  alertDelay:vector  ETV
attr source  alertDelay
attr title  "Alert Message Delay, vector"
attr unit  s
vector 281  SingleCell_D2DMulticast.ueD2D[8].udpApp[0]  alertRcvdMsg:vector  ETV
attr source  alertRcvdMsg
attr title  "Alert Messages Received, vector"
attr unit  s
vector 315  SingleCell_D2DMulticast.ueD2D[9].nic.mac  sentPacketToUpperLayer:vector(packetBytes)  ETV
attr interpolationmode  none
attr source  sentPacketToUpperLayer
vector 310  SingleCell_D2DMulticast.ueD2D[9].nic.pdcpRrc  receivedPacketFromLowerLayer:vector(packetBytes)  ETV
attr interpolationmode  none
attr source  receivedPacketFromLowerLayer
vector 311  SingleCell_D2DMulticast.ueD2D[9].nic.pdcpRrc  sentPacketToUpperLayer:vector(packetBytes)  ETV
attr interpolationmode  none
attr source  sentPacketToUpperLayer
vector 305  SingleCell_D2DMulticast.ueD2D[9].udp  rcvdPk:vector(packetBytes)  ETV
attr interpolationmode  none
attr source  rcvdPk
attr title  "packets received, vector(packetBytes)"
vector 306  SingleCell_D2DMulticast.ueD2D[9].udp  passedUpPk:vector(count)  ETV
attr interpolationmode  none
attr title  "packets passed up, vector(count)"
vector 302  SingleCell_D2DMulticast.ueD2D[9].udpApp[0]  alertDelay:vector  ETV
attr source  alertDelay
attr title  "Alert Message Delay, vector"
attr unit  s
vector 303  SingleCell_D2DMulticast.ueD2D[9].udpApp[0]  alertRcvdMsg:vector  ETV
attr source  alertRcvdMsg
attr title  "Alert Messages Received, vector"
attr unit  s
vector 337  SingleCell_D2DMulticast.ueD2D[10].nic.mac  sentPacketToUpperLayer:vector(packetBytes)  ETV
attr interpolationmode  none
attr source  sentPacketToUpperLayer
vector 332  SingleCell_D2DMulticast.ueD2D[10].nic.pdcpRrc  receivedPacketFromLowerLayer:vector(packetBytes)  ETV
attr interpolationmode  none
attr source  receivedPacketFromLowerLayer
vector 333  SingleCell_D2DMulticast.ueD2D[10].nic.pdcpRrc  sentPacketToUpperLayer:vector(packetBytes)  ETV
attr interpolationmode  none
attr source  sentPacketToUpperLayer
vector 327  SingleCell_D2DMulticast.ueD2D[10].udp  rcvdPk:vector(packetBytes)  ETV
attr interpolationmode  none
attr source  rcvdPk
attr title  "packets received, vector(packetBytes)"
vector 328  SingleCell_D2DMulticast.ueD2D[10].udp  passedUpPk:vector(count)  ETV
attr interpolationmode  none
attr title  "packets passed up, vector(count)"
vector 324  SingleCell_D2DMulticast.ueD2D[10].udpApp[0]  alertDelay:vector  ETV
attr source  alertDelay
attr title  "Alert Message Delay, vector"
attr unit  s
vector 325  SingleCell_D2DMulticast.ueD2D[10].udpApp[0]  alertRcvdMsg:vector  ETV
attr source  alertRcvdMsg
attr title  "Alert Messages Received, vector"
attr unit  s
vector 359  SingleCell_D2DMulticast.ueD2D[11].nic.mac  sentPacketToUpperLayer:vector(packetBytes)  ETV
attr interpolationmode  none
attr source  sentPacketToUpperLayer
vector 354  SingleCell_D2DMulticast.ueD2D[11].nic.pdcpRrc  receivedPacketFromLowerLayer:vector(packetBytes)  ETV
attr interpolationmode  none
attr source  receivedPacketFromLowerLayer
vector 355  SingleCell_D2DMulticast.ueD2D[11].nic.pdcpRrc  sentPacketToUpperLayer:vector(packetBytes)  ETV
attr interpolationmode  none
attr source  sentPacketToUpperLayer
vector 349  SingleCell_D2DMulticast.ueD2D[11].udp  rcvdPk:vector(packetBytes)  ETV
attr interpolationmode  none
attr source  rcvdPk
attr title  "packets received, vector(packetBytes)"
vector 350  SingleCell_D2DMulticast.ueD2D[11].udp  passedUpPk:vector(count)  ETV
attr interpolationmode  none
attr title  "packets passed up, vector(count)"
vector 346  SingleCell_D2DMulticast.ueD2D[11].udpApp[0]  alertDelay:vector  ETV
attr source  alertDelay
attr title  "Alert Message Delay, vector"
attr unit  s
vector 347  SingleCell_D2DMulticast.ueD2D[11].udpApp[0]  alertRcvdMsg:vector  ETV
attr source  alertRcvdMsg
attr title  "Alert Messages Received, vector"
attr unit  s
vector 381  SingleCell_D2DMulticast.ueD2D[12].nic.mac  sentPacketToUpperLayer:vector(packetBytes)  ETV
attr interpolationmode  none
attr source  sentPacketToUpperLayer
vector 376  SingleCell_D2DMulticast.ueD2D[12].nic.pdcpRrc  receivedPacketFromLowerLayer:vector(packetBytes)  ETV
attr interpolationmode  none
attr source  receivedPacketFromLowerLayer
vector 377  SingleCell_D2DMulticast.ueD2D[12].nic.pdcpRrc  sentPacketToUpperLayer:vector(packetBytes)  ETV
attr interpolationmode  none
attr source  sentPacketToUpperLayer
vector 371  SingleCell_D2DMulticast.ueD2D[12].udp  rcvdPk:vector(packetBytes)  ETV
attr interpolationmode  none
attr source  rcvdPk
attr title  "packets received, vector(packetBytes)"
vector 372  SingleCell_D2DMulticast.ueD2D[12].udp  passedUpPk:vector(count)  ETV
attr interpolationmode  none
attr title  "packets passed up, vector(count)"
vector 368  SingleCell_D2DMulticast.ueD2D[12].udpApp[0]  alertDelay:vector  ETV
attr source  alertDelay
attr title  "Alert Message Delay, vector"
attr unit  s
vector 369  SingleCell_D2DMulticast.ueD2D[12].udpApp[0]  alertRcvdMsg:vector  ETV
attr source  alertRcvdMsg
attr title  "Alert Messages Received, vector"
attr unit  s
vector 403  SingleCell_D2DMulticast.ueD2D[13].nic.mac  sentPacketToUpperLayer:vector(packetBytes)  ETV
attr interpolationmode  none
attr source  sentPacketToUpperLayer
vector 398  SingleCell_D2DMulticast.ueD2D[13].nic.pdcpRrc  receivedPacketFromLowerLayer:vector(packetBytes)  ETV
attr interpolationmode  none
attr source  receivedPacketFromLowerLayer
vector 399  SingleCell_D2DMulticast.ueD2D[13].nic.pdcpRrc  sentPacketToUpperLayer:vector(packetBytes)  ETV
attr interpolationmode  none
attr source  sentPacketToUpperLayer
vector 393  SingleCell_D2DMulticast.ueD2D[13].udp  rcvdPk:vector(packetBytes)  ETV
attr interpolationmode  none
attr source  rcvdPk
attr title  "packets received, vector(packetBytes)"
vector 394  SingleCell_D2DMulticast.ueD2D[13].udp  passedUpPk:vector(count)  ETV
attr interpolationmode  none
attr title  "packets passed up, vector(count)"
vector 390  SingleCell_D2DMulticast.ueD2D[13].udpApp[0]  alertDelay:vector  ETV
attr source  alertDelay
attr title  "Alert Message Delay, vector"
attr unit  s
vector 391  SingleCell_D2DMulticast.ueD2D[13].udpApp[0]  alertRcvdMsg:vector  ETV
attr source  alertRcvdMsg
attr title  "Alert Messages Received, vector"
attr unit  s
vector 425  SingleCell_D2DMulticast.ueD2D[14].nic.mac  sentPacketToUpperLayer:vector(packetBytes)  ETV
attr interpolationmode  none
attr source  sentPacketToUpperLayer
vector 420  SingleCell_D2DMulticast.ueD2D[14].nic.pdcpRrc  receivedPacketFromLowerLayer:vector(packetBytes)  ETV
attr interpolationmode  none
attr source  receivedPacketFromLowerLayer
vector 421  SingleCell_D2DMulticast.ueD2D[14].nic.pdcpRrc  sentPacketToUpperLayer:vector(packetBytes)  ETV
attr interpolationmode  none
attr source  sentPacketToUpperLayer
vector 415  SingleCell_D2DMulticast.ueD2D[14].udp  rcvdPk:vector(packetBytes)  ETV
attr interpolationmode  none
attr source  rcvdPk
attr title  "packets received, vector(packetBytes)"
vector 416  SingleCell_D2DMulticast.ueD2D[14].udp  passedUpPk:vector(count)  ETV
attr interpolationmode  none
attr title  "packets passed up, vector(count)"
vector 412  SingleCell_D2DMulticast.ueD2D[14].udpApp[0]  alertDelay:vector  ETV
attr source  alertDelay
attr title  "Alert Message Delay, vector"
attr unit  s
vector 413  SingleCell_D2DMulticast.ueD2D[14].udpApp[0]  alertRcvdMsg:vector  ETV
attr source  alertRcvdMsg
attr title  "Alert Messages Received, vector"
attr unit  s
vector 447  SingleCell_D2DMulticast.ueD2D[15].nic.mac  sentPacketToUpperLayer:vector(packetBytes)  ETV
attr interpolationmode  none
attr source  sentPacketToUpperLayer
vector 442  SingleCell_D2DMulticast.ueD2D[15].nic.pdcpRrc  receivedPacketFromLowerLayer:vector(packetBytes)  ETV
attr interpolationmode  none
attr source  receivedPacketFromLowerLayer
vector 443  SingleCell_D2DMulticast.ueD2D[15].nic.pdcpRrc  sentPacketToUpperLayer:vector(packetBytes)  ETV
attr interpolationmode  none
attr source  sentPacketToUpperLayer
vector 437  SingleCell_D2DMulticast.ueD2D[15].udp  rcvdPk:vector(packetBytes)  ETV
attr interpolationmode  none
attr source  rcvdPk
attr title  "packets received, vector(packetBytes)"
vector 438  SingleCell_D2DMulticast.ueD2D[15].udp  passedUpPk:vector(count)  ETV
attr interpolationmode  none
attr title  "packets passed up, vector(count)"
vector 434  SingleCell_D2DMulticast.ueD2D[15].udpApp[0]  alertDelay:vector  ETV
attr source  alertDelay
attr title  "Alert Message Delay, vector"
attr unit  s
vector 435  SingleCell_D2DMulticast.ueD2D[15].udpApp[0]  alertRcvdMsg:vector  ETV
attr source  alertRcvdMsg
attr title  "Alert Messages Received, vector"
attr unit  s
vector 469  SingleCell_D2DMulticast.ueD2D[16].nic.mac  sentPacketToUpperLayer:vector(packetBytes)  ETV
attr interpolationmode  none
attr source  sentPacketToUpperLayer
vector 464  SingleCell_D2DMulticast.ueD2D[16].nic.pdcpRrc  receivedPacketFromLowerLayer:vector(packetBytes)  ETV
attr interpolationmode  none
attr source  receivedPacketFromLowerLayer
vector 465  SingleCell_D2DMulticast.ueD2D[16].nic.pdcpRrc  sentPacketToUpperLayer:vector(packetBytes)  ETV
attr interpolationmode  none
attr source  sentPacketToUpperLayer
vector 459  SingleCell_D2DMulticast.ueD2D[16].udp  rcvdPk:vector(packetBytes)  ETV
attr interpolationmode  none
attr source  rcvdPk
attr title  "packets received, vector(packetBytes)"
vector 460  SingleCell_D2DMulticast.ueD2D[16].udp  passedUpPk:vector(count)  ETV
attr interpolationmode  none
attr title  "packets passed up, vector(count)"
vector 456  SingleCell_D2DMulticast.ueD2D[16].udpApp[0]  alertDelay:vector  ETV
attr source  alertDelay
attr title  "Alert Message Delay, vector"
attr unit  s
vector 457  SingleCell_D2DMulticast.ueD2D[16].udpApp[0]  alertRcvdMsg:vector  ETV
attr source  alertRcvdMsg
attr title  "Alert Messages Received, vector"
attr unit  s
vector 491  SingleCell_D2DMulticast.ueD2D[17].nic.mac  sentPacketToUpperLayer:vector(packetBytes)  ETV
attr interpolationmode  none
attr source  sentPacketToUpperLayer
vector 486  SingleCell_D2DMulticast.ueD2D[17].nic.pdcpRrc  receivedPacketFromLowerLayer:vector(packetBytes)  ETV
attr interpolationmode  none
attr source  receivedPacketFromLowerLayer
vector 487  SingleCell_D2DMulticast.ueD2D[17].nic.pdcpRrc  sentPacketToUpperLayer:vector(packetBytes)  ETV
attr interpolationmode  none
attr source  sentPacketToUpperLayer
vector 481  SingleCell_D2DMulticast.ueD2D[17].udp  rcvdPk:vector(packetBytes)  ETV
attr interpolationmode  none
attr source  rcvdPk
attr title  "packets received, vector(packetBytes)"
vector 482  SingleCell_D2DMulticast.ueD2D[17].udp  passedUpPk:vector(count)  ETV
attr interpolationmode  none
attr title  "packets passed up, vector(count)"
vector 478  SingleCell_D2DMulticast.ueD2D[17].udpApp[0]  alertDelay:vector  ETV
attr source  alertDelay
attr title  "Alert Message Delay, vector"
attr unit  s
vector 479  SingleCell_D2DMulticast.ueD2D[17].udpApp[0]  alertRcvdMsg:vector  ETV
attr source  alertRcvdMsg
attr title  "Alert Messages Received, vector"
attr unit  s
vector 513  SingleCell_D2DMulticast.ueD2D[18].nic.mac  sentPacketToUpperLayer:vector(packetBytes)  ETV
attr interpolationmode  none
attr source  sentPacketToUpperLayer
vector 508  SingleCell_D2DMulticast.ueD2D[18].nic.pdcpRrc  receivedPacketFromLowerLayer:vector(packetBytes)  ETV
attr interpolationmode  none
attr source  receivedPacketFromLowerLayer
vector 509  SingleCell_D2DMulticast.ueD2D[18].nic.pdcpRrc  sentPacketToUpperLayer:vector(packetBytes)  ETV
attr interpolationmode  none
attr source  sentPacketToUpperLayer
vector 503  SingleCell_D2DMulticast.ueD2D[18].udp  rcvdPk:vector(packetBytes)  ETV
attr interpolationmode  none
attr source  rcvdPk
attr title  "packets received, vector(packetBytes)"
vector 504  SingleCell_D2DMulticast.ueD2D[18].udp  passedUpPk:vector(count)  ETV
attr interpolationmode  none
attr title  "packets passed up, vector(count)"
vector 500  SingleCell_D2DMulticast.ueD2D[18].udpApp[0]  alertDelay:vector  ETV
attr source  alertDelay
attr title  "Alert Message Delay, vector"
attr unit  s
vector 501  SingleCell_D2DMulticast.ueD2D[18].udpApp[0]  alertRcvdMsg:vector  ETV
attr source  alertRcvdMsg
attr title  "Alert Messages Received, vector"
attr unit  s
vector 535  SingleCell_D2DMulticast.ueD2D[19].nic.mac  sentPacketToUpperLayer:vector(packetBytes)  ETV
attr interpolationmode  none
attr source  sentPacketToUpperLayer
vector 530  SingleCell_D2DMulticast.ueD2D[19].nic.pdcpRrc  receivedPacketFromLowerLayer:vector(packetBytes)  ETV
attr interpolationmode  none
attr source  receivedPacketFromLowerLayer
vector 531  SingleCell_D2DMulticast.ueD2D[19].nic.pdcpRrc  sentPacketToUpperLayer:vector(packetBytes)  ETV
attr interpolationmode  none
attr source  sentPacketToUpperLayer
vector 525  SingleCell_D2DMulticast.ueD2D[19].udp  rcvdPk:vector(packetBytes)  ETV
attr interpolationmode  none
attr source  rcvdPk
attr title  "packets received, vector(packetBytes)"
vector 526  SingleCell_D2DMulticast.ueD2D[19].udp  passedUpPk:vector(count)  ETV
attr interpolationmode  none
attr title  "packets passed up, vector(count)"
vector 522  SingleCell_D2DMulticast.ueD2D[19].udpApp[0]  alertDelay:vector  ETV
attr source  alertDelay
attr title  "Alert Message Delay, vector"
attr unit  s
vector 523  SingleCell_D2DMulticast.ueD2D[19].udpApp[0]  alertRcvdMsg:vector  ETV
attr source  alertRcvdMsg
attr title  "Alert Messages Received, vector"
attr unit  s
vector 557  SingleCell_D2DMulticast.ueD2D[20].nic.mac  sentPacketToUpperLayer:vector(packetBytes)  ETV
attr interpolationmode  none
attr source  sentPacketToUpperLayer
vector 552  SingleCell_D2DMulticast.ueD2D[20].nic.pdcpRrc  receivedPacketFromLowerLayer:vector(packetBytes)  ETV
attr interpolationmode  none
attr source  receivedPacketFromLowerLayer
vector 553  SingleCell_D2DMulticast.ueD2D[20].nic.pdcpRrc  sentPacketToUpperLayer:vector(packetBytes)  ETV
attr interpolationmode  none
attr source  sentPacketToUpperLayer
vector 547  SingleCell_D2DMulticast.ueD2D[20].udp  rcvdPk:vector(packetBytes)  ETV
attr interpolationmode  none
attr source  rcvdPk
attr title  "packets received, vector(packetBytes)"
vector 548  SingleCell_D2DMulticast.ueD2D[20].udp  passedUpPk:vector(count)  ETV
attr interpolationmode  none
attr title  "packets passed up, vector(count)"
vector 544  SingleCell_D2DMulticast.ueD2D[20].udpApp[0]  alertDelay:vector  ETV
attr source  alertDelay
attr title  "Alert Message Delay, vector"
attr unit  s
vector 545  SingleCell_D2DMulticast.ueD2D[20].udpApp[0]  alertRcvdMsg:vector  ETV
attr source  alertRcvdMsg
attr title  "Alert Messages Received, vector"
attr unit  s
vector 579  SingleCell_D2DMulticast.ueD2D[21].nic.mac  sentPacketToUpperLayer:vector(packetBytes)  ETV
attr interpolationmode  none
attr source  sentPacketToUpperLayer
vector 574  SingleCell_D2DMulticast.ueD2D[21].nic.pdcpRrc  receivedPacketFromLowerLayer:vector(packetBytes)  ETV
attr interpolationmode  none
attr source  receivedPacketFromLowerLayer
vector 575  SingleCell_D2DMulticast.ueD2D[21].nic.pdcpRrc  sentPacketToUpperLayer:vector(packetBytes)  ETV
attr interpolationmode  none
attr source  sentPacketToUpperLayer
vector 569  SingleCell_D2DMulticast.ueD2D[21].udp  rcvdPk:vector(packetBytes)  ETV
attr interpolationmode  none
attr source  rcvdPk
attr title  "packets received, vector(packetBytes)"
vector 570  SingleCell_D2DMulticast.ueD2D[21].udp  passedUpPk:vector(count)  ETV
attr interpolationmode  none
attr title  "packets passed up, vector(count)"
vector 566  SingleCell_D2DMulticast.ueD2D[21].udpApp[0]  alertDelay:vector  ETV
attr source  alertDelay
attr title  "Alert Message Delay, vector"
attr unit  s
vector 567  SingleCell_D2DMulticast.ueD2D[21].udpApp[0]  alertRcvdMsg:vector  ETV
attr source  alertRcvdMsg
attr title  "Alert Messages Received, vector"
attr unit  s
vector 601  SingleCell_D2DMulticast.ueD2D[22].nic.mac  sentPacketToUpperLayer:vector(packetBytes)  ETV
attr interpolationmode  none
attr source  sentPacketToUpperLayer
vector 596  SingleCell_D2DMulticast.ueD2D[22].nic.pdcpRrc  receivedPacketFromLowerLayer:vector(packetBytes)  ETV
attr interpolationmode  none
attr source  receivedPacketFromLowerLayer
vector 597  SingleCell_D2DMulticast.ueD2D[22].nic.pdcpRrc  sentPacketToUpperLayer:vector(packetBytes)  ETV
attr interpolationmode  none
attr source  sentPacketToUpperLayer
vector 591  SingleCell_D2DMulticast.ueD2D[22].udp  rcvdPk:vector(packetBytes)  ETV
attr interpolationmode  none
attr source  rcvdPk
attr title  "packets received, vector(packetBytes)"
vector 592  SingleCell_D2DMulticast.ueD2D[22].udp  passedUpPk:vector(count)  ETV
attr interpolationmode  none
attr title  "packets passed up, vector(count)"
vector 588  SingleCell_D2DMulticast.ueD2D[22].udpApp[0]  alertDelay:vector  ETV
attr source  alertDelay
attr title  "Alert Message Delay, vector"
attr unit  s
vector 589  SingleCell_D2DMulticast.ueD2D[22].udpApp[0]  alertRcvdMsg:vector  ETV
attr source  alertRcvdMsg
attr title  "Alert Messages Received, vector"
attr unit  s
vector 623  SingleCell_D2DMulticast.ueD2D[23].nic.mac  sentPacketToUpperLayer:vector(packetBytes)  ETV
attr interpolationmode  none
attr source  sentPacketToUpperLayer
vector 618  SingleCell_D2DMulticast.ueD2D[23].nic.pdcpRrc  receivedPacketFromLowerLayer:vector(packetBytes)  ETV
attr interpolationmode  none
attr source  receivedPacketFromLowerLayer
vector 619  SingleCell_D2DMulticast.ueD2D[23].nic.pdcpRrc  sentPacketToUpperLayer:vector(packetBytes)  ETV
attr interpolationmode  none
attr source  sentPacketToUpperLayer
vector 613  SingleCell_D2DMulticast.ueD2D[23].udp  rcvdPk:vector(packetBytes)  ETV
attr interpolationmode  none
attr source  rcvdPk
attr title  "packets received, vector(packetBytes)"
vector 614  SingleCell_D2DMulticast.ueD2D[23].udp  passedUpPk:vector(count)  ETV
attr interpolationmode  none
attr title  "packets passed up, vector(count)"
vector 610  SingleCell_D2DMulticast.ueD2D[23].udpApp[0]  alertDelay:vector  ETV
attr source  alertDelay
attr title  "Alert Message Delay, vector"
attr unit  s
vector 611  SingleCell_D2DMulticast.ueD2D[23].udpApp[0]  alertRcvdMsg:vector  ETV
attr source  alertRcvdMsg
attr title  "Alert Messages Received, vector"
attr unit  s
vector 645  SingleCell_D2DMulticast.ueD2D[24].nic.mac  sentPacketToUpperLayer:vector(packetBytes)  ETV
attr interpolationmode  none
attr source  sentPacketToUpperLayer
vector 640  SingleCell_D2DMulticast.ueD2D[24].nic.pdcpRrc  receivedPacketFromLowerLayer:vector(packetBytes)  ETV
attr interpolationmode  none
attr source  receivedPacketFromLowerLayer
vector 641  SingleCell_D2DMulticast.ueD2D[24].nic.pdcpRrc  sentPacketToUpperLayer:vector(packetBytes)  ETV
attr interpolationmode  none
attr source  sentPacketToUpperLayer
vector 635  SingleCell_D2DMulticast.ueD2D[24].udp  rcvdPk:vector(packetBytes)  ETV
attr interpolationmode  none
attr source  rcvdPk
attr title  "packets received, vector(packetBytes)"
vector 636  SingleCell_D2DMulticast.ueD2D[24].udp  passedUpPk:vector(count)  ETV
attr interpolationmode  none
attr title  "packets passed up, vector(count)"
vector 632  SingleCell_D2DMulticast.ueD2D[24].udpApp[0]  alertDelay:vector  ETV
attr source  alertDelay
attr title  "Alert Message Delay, vector"
attr unit  s
vector 633  SingleCell_D2DMulticast.ueD2D[24].udpApp[0]  alertRcvdMsg:vector  ETV
attr source  alertRcvdMsg
attr title  "Alert Messages Received, vector"
attr unit  s
vector 667  SingleCell_D2DMulticast.ueD2D[25].nic.mac  sentPacketToUpperLayer:vector(packetBytes)  ETV
attr interpolationmode  none
attr source  sentPacketToUpperLayer
vector 662  SingleCell_D2DMulticast.ueD2D[25].nic.pdcpRrc  receivedPacketFromLowerLayer:vector(packetBytes)  ETV
attr interpolationmode  none
attr source  receivedPacketFromLowerLayer
vector 663  SingleCell_D2DMulticast.ueD2D[25].nic.pdcpRrc  sentPacketToUpperLayer:vector(packetBytes)  ETV
attr interpolationmode  none
attr source  sentPacketToUpperLayer
vector 657  SingleCell_D2DMulticast.ueD2D[25].udp  rcvdPk:vector(packetBytes)  ETV
attr interpolationmode  none
attr source  rcvdPk
attr title  "packets received, vector(packetBytes)"
vector 658  SingleCell_D2DMulticast.ueD2D[25].udp  passedUpPk:vector(count)  ETV
attr interpolationmode  none
attr title  "packets passed up, vector(count)"
vector 654  SingleCell_D2DMulticast.ueD2D[25].udpApp[0]  alertDelay:vector  ETV
attr source  alertDelay
attr title  "Alert Message Delay, vector"
attr unit  s
vector 655  SingleCell_D2DMulticast.ueD2D[25].udpApp[0]  alertRcvdMsg:vector  ETV
attr source  alertRcvdMsg
attr title  "Alert Messages Received, vector"
attr unit  s
vector 689  SingleCell_D2DMulticast.ueD2D[26].nic.mac  sentPacketToUpperLayer:vector(packetBytes)  ETV
attr interpolationmode  none
attr source  sentPacketToUpperLayer
vector 684  SingleCell_D2DMulticast.ueD2D[26].nic.pdcpRrc  receivedPacketFromLowerLayer:vector(packetBytes)  ETV
attr interpolationmode  none
attr source  receivedPacketFromLowerLayer
vector 685  SingleCell_D2DMulticast.ueD2D[26].nic.pdcpRrc  sentPacketToUpperLayer:vector(packetBytes)  ETV
attr interpolationmode  none
attr source  sentPacketToUpperLayer
vector 679  SingleCell_D2DMulticast.ueD2D[26].udp  rcvdPk:vector(packetBytes)  ETV
attr interpolationmode  none
attr source  rcvdPk
attr title  "packets received, vector(packetBytes)"
vector 680  SingleCell_D2DMulticast.ueD2D[26].udp  passedUpPk:vector(count)  ETV
attr interpolationmode  none
attr title  "packets passed up, vector(count)"
vector 676  SingleCell_D2DMulticast.ueD2D[26].udpApp[0]  alertDelay:vector  ETV
attr source  alertDelay
attr title  "Alert Message Delay, vector"
attr unit  s
vector 677  SingleCell_D2DMulticast.ueD2D[26].udpApp[0]  alertRcvdMsg:vector  ETV
attr source  alertRcvdMsg
attr title  "Alert Messages Received, vector"
attr unit  s
vector 711  SingleCell_D2DMulticast.ueD2D[27].nic.mac  sentPacketToUpperLayer:vector(packetBytes)  ETV
attr interpolationmode  none
attr source  sentPacketToUpperLayer
vector 706  SingleCell_D2DMulticast.ueD2D[27].nic.pdcpRrc  receivedPacketFromLowerLayer:vector(packetBytes)  ETV
attr interpolationmode  none
attr source  receivedPacketFromLowerLayer
vector 707  SingleCell_D2DMulticast.ueD2D[27].nic.pdcpRrc  sentPacketToUpperLayer:vector(packetBytes)  ETV
attr interpolationmode  none
attr source  sentPacketToUpperLayer
vector 701  SingleCell_D2DMulticast.ueD2D[27].udp  rcvdPk:vector(packetBytes)  ETV
attr interpolationmode  none
attr source  rcvdPk
attr title  "packets received, vector(packetBytes)"
vector 702  SingleCell_D2DMulticast.ueD2D[27].udp  passedUpPk:vector(count)  ETV
attr interpolationmode  none
attr title  "packets passed up, vector(count)"
vector 698  SingleCell_D2DMulticast.ueD2D[27].udpApp[0]  alertDelay:vector  ETV
attr source  alertDelay
attr title  "Alert Message Delay, vector"
attr unit  s
vector 699  SingleCell_D2DMulticast.ueD2D[27].udpApp[0]  alertRcvdMsg:vector  ETV
attr source  alertRcvdMsg
attr title  "Alert Messages Received, vector"
attr unit  s
vector 733  SingleCell_D2DMulticast.ueD2D[28].nic.mac  sentPacketToUpperLayer:vector(packetBytes)  ETV
attr interpolationmode  none
attr source  sentPacketToUpperLayer
vector 728  SingleCell_D2DMulticast.ueD2D[28].nic.pdcpRrc  receivedPacketFromLowerLayer:vector(packetBytes)  ETV
attr interpolationmode  none
attr source  receivedPacketFromLowerLayer
vector 729  SingleCell_D2DMulticast.ueD2D[28].nic.pdcpRrc  sentPacketToUpperLayer:vector(packetBytes)  ETV
attr interpolationmode  none
attr source  sentPacketToUpperLayer
vector 723  SingleCell_D2DMulticast.ueD2D[28].udp  rcvdPk:vector(packetBytes)  ETV
attr interpolationmode  none
attr source  rcvdPk
attr title  "packets received, vector(packetBytes)"
vector 724  SingleCell_D2DMulticast.ueD2D[28].udp  passedUpPk:vector(count)  ETV
attr interpolationmode  none
attr title  "packets passed up, vector(count)"
vector 720  SingleCell_D2DMulticast.ueD2D[28].udpApp[0]  alertDelay:vector  ETV
attr source  alertDelay
attr title  "Alert Message Delay, vector"
attr unit  s
vector 721  SingleCell_D2DMulticast.ueD2D[28].udpApp[0]  alertRcvdMsg:vector  ETV
attr source  alertRcvdMsg
attr title  "Alert Messages Received, vector"
attr unit  s
vector 755  SingleCell_D2DMulticast.ueD2D[29].nic.mac  sentPacketToUpperLayer:vector(packetBytes)  ETV
attr interpolationmode  none
attr source  sentPacketToUpperLayer
vector 750  SingleCell_D2DMulticast.ueD2D[29].nic.pdcpRrc  receivedPacketFromLowerLayer:vector(packetBytes)  ETV
attr interpolationmode  none
attr source  receivedPacketFromLowerLayer
vector 751  SingleCell_D2DMulticast.ueD2D[29].nic.pdcpRrc  sentPacketToUpperLayer:vector(packetBytes)  ETV
attr interpolationmode  none
attr source  sentPacketToUpperLayer
vector 745  SingleCell_D2DMulticast.ueD2D[29].udp  rcvdPk:vector(packetBytes)  ETV
attr interpolationmode  none
attr source  rcvdPk
attr title  "packets received, vector(packetBytes)"
vector 746  SingleCell_D2DMulticast.ueD2D[29].udp  passedUpPk:vector(count)  ETV
attr interpolationmode  none
attr title  "packets passed up, vector(count)"
vector 742  SingleCell_D2DMulticast.ueD2D[29].udpApp[0]  alertDelay:vector  ETV
attr source  alertDelay
attr title  "Alert Message Delay, vector"
attr unit  s
vector 743  SingleCell_D2DMulticast.ueD2D[29].udpApp[0]  alertRcvdMsg:vector  ETV
attr source  alertRcvdMsg
attr title  "Alert Messages Received, vector"
attr unit  s
vector 777  SingleCell_D2DMulticast.ueD2D[30].nic.mac  sentPacketToUpperLayer:vector(packetBytes)  ETV
attr interpolationmode  none
attr source  sentPacketToUpperLayer
vector 772  SingleCell_D2DMulticast.ueD2D[30].nic.pdcpRrc  receivedPacketFromLowerLayer:vector(packetBytes)  ETV
attr interpolationmode  none
attr source  receivedPacketFromLowerLayer
vector 773  SingleCell_D2DMulticast.ueD2D[30].nic.pdcpRrc  sentPacketToUpperLayer:vector(packetBytes)  ETV
attr interpolationmode  none
attr source  sentPacketToUpperLayer
vector 767  SingleCell_D2DMulticast.ueD2D[30].udp  rcvdPk:vector(packetBytes)  ETV
attr interpolationmode  none
attr source  rcvdPk
attr title  "packets received, vector(packetBytes)"
vector 768  SingleCell_D2DMulticast.ueD2D[30].udp  passedUpPk:vector(count)  ETV
attr interpolationmode  none
attr title  "packets passed up, vector(count)"
vector 764  SingleCell_D2DMulticast.ueD2D[30].udpApp[0]  alertDelay:vector  ETV
attr source  alertDelay
attr title  "Alert Message Delay, vector"
attr unit  s
vector 765  SingleCell_D2DMulticast.ueD2D[30].udpApp[0]  alertRcvdMsg:vector  ETV
attr source  alertRcvdMsg
attr title  "Alert Messages Received, vector"
attr unit  s
vector 799  SingleCell_D2DMulticast.ueD2D[31].nic.mac  sentPacketToUpperLayer:vector(packetBytes)  ETV
attr interpolationmode  none
attr source  sentPacketToUpperLayer
vector 794  SingleCell_D2DMulticast.ueD2D[31].nic.pdcpRrc  receivedPacketFromLowerLayer:vector(packetBytes)  ETV
attr interpolationmode  none
attr source  receivedPacketFromLowerLayer
vector 795  SingleCell_D2DMulticast.ueD2D[31].nic.pdcpRrc  sentPacketToUpperLayer:vector(packetBytes)  ETV
attr interpolationmode  none
attr source  sentPacketToUpperLayer
vector 789  SingleCell_D2DMulticast.ueD2D[31].udp  rcvdPk:vector(packetBytes)  ETV
attr interpolationmode  none
attr source  rcvdPk
attr title  "packets received, vector(packetBytes)"
vector 790  SingleCell_D2DMulticast.ueD2D[31].udp  passedUpPk:vector(count)  ETV
attr interpolationmode  none
attr title  "packets passed up, vector(count)"
vector 786  SingleCell_D2DMulticast.ueD2D[31].udpApp[0]  alertDelay:vector  ETV
attr source  alertDelay
attr title  "Alert Message Delay, vector"
attr unit  s
vector 787  SingleCell_D2DMulticast.ueD2D[31].udpApp[0]  alertRcvdMsg:vector  ETV
attr source  alertRcvdMsg
attr title  "Alert Messages Received, vector"
attr unit  s
vector 821  SingleCell_D2DMulticast.ueD2D[32].nic.mac  sentPacketToUpperLayer:vector(packetBytes)  ETV
attr interpolationmode  none
attr source  sentPacketToUpperLayer
vector 816  SingleCell_D2DMulticast.ueD2D[32].nic.pdcpRrc  receivedPacketFromLowerLayer:vector(packetBytes)  ETV
attr interpolationmode  none
attr source  receivedPacketFromLowerLayer
vector 817  SingleCell_D2DMulticast.ueD2D[32].nic.pdcpRrc  sentPacketToUpperLayer:vector(packetBytes)  ETV
attr interpolationmode  none
attr source  sentPacketToUpperLayer
vector 811  SingleCell_D2DMulticast.ueD2D[32].udp  rcvdPk:vector(packetBytes)  ETV
attr interpolationmode  none
attr source  rcvdPk
attr title  "packets received, vector(packetBytes)"
vector 812  SingleCell_D2DMulticast.ueD2D[32].udp  passedUpPk:vector(count)  ETV
attr interpolationmode  none
attr title  "packets passed up, vector(count)"
vector 808  SingleCell_D2DMulticast.ueD2D[32].udpApp[0]  alertDelay:vector  ETV
attr source  alertDelay
attr title  "Alert Message Delay, vector"
attr unit  s
vector 809  SingleCell_D2DMulticast.ueD2D[32].udpApp[0]  alertRcvdMsg:vector  ETV
attr source  alertRcvdMsg
attr title  "Alert Messages Received, vector"
attr unit  s
vector 843  SingleCell_D2DMulticast.ueD2D[33].nic.mac  sentPacketToUpperLayer:vector(packetBytes)  ETV
attr interpolationmode  none
attr source  sentPacketToUpperLayer
vector 838  SingleCell_D2DMulticast.ueD2D[33].nic.pdcpRrc  receivedPacketFromLowerLayer:vector(packetBytes)  ETV
attr interpolationmode  none
attr source  receivedPacketFromLowerLayer
vector 839  SingleCell_D2DMulticast.ueD2D[33].nic.pdcpRrc  sentPacketToUpperLayer:vector(packetBytes)  ETV
attr interpolationmode  none
attr source  sentPacketToUpperLayer
vector 833  SingleCell_D2DMulticast.ueD2D[33].udp  rcvdPk:vector(packetBytes)  ETV
attr interpolationmode  none
attr source  rcvdPk
attr title  "packets received, vector(packetBytes)"
vector 834  SingleCell_D2DMulticast.ueD2D[33].udp  passedUpPk:vector(count)  ETV
attr interpolationmode  none
attr title  "packets passed up, vector(count)"
vector 830  SingleCell_D2DMulticast.ueD2D[33].udpApp[0]  alertDelay:vector  ETV
attr source  alertDelay
attr title  "Alert Message Delay, vector"
attr unit  s
vector 831  SingleCell_D2DMulticast.ueD2D[33].udpApp[0]  alertRcvdMsg:vector  ETV
attr source  alertRcvdMsg
attr title  "Alert Messages Received, vector"
attr unit  s
vector 865  SingleCell_D2DMulticast.ueD2D[34].nic.mac  sentPacketToUpperLayer:vector(packetBytes)  ETV
attr interpolationmode  none
attr source  sentPacketToUpperLayer
vector 860  SingleCell_D2DMulticast.ueD2D[34].nic.pdcpRrc  receivedPacketFromLowerLayer:vector(packetBytes)  ETV
attr interpolationmode  none
attr source  receivedPacketFromLowerLayer
vector 861  SingleCell_D2DMulticast.ueD2D[34].nic.pdcpRrc  sentPacketToUpperLayer:vector(packetBytes)  ETV
attr interpolationmode  none
attr source  sentPacketToUpperLayer
vector 855  SingleCell_D2DMulticast.ueD2D[34].udp  rcvdPk:vector(packetBytes)  ETV
attr interpolationmode  none
attr source  rcvdPk
attr title  "packets received, vector(packetBytes)"
vector 856  SingleCell_D2DMulticast.ueD2D[34].udp  passedUpPk:vector(count)  ETV
attr interpolationmode  none
attr title  "packets passed up, vector(count)"
vector 852  SingleCell_D2DMulticast.ueD2D[34].udpApp[0]  alertDelay:vector  ETV
attr source  alertDelay
attr title  "Alert Message Delay, vector"
attr unit  s
vector 853  SingleCell_D2DMulticast.ueD2D[34].udpApp[0]  alertRcvdMsg:vector  ETV
attr source  alertRcvdMsg
attr title  "Alert Messages Received, vector"
attr unit  s
vector 887  SingleCell_D2DMulticast.ueD2D[35].nic.mac  sentPacketToUpperLayer:vector(packetBytes)  ETV
attr interpolationmode  none
attr source  sentPacketToUpperLayer
vector 882  SingleCell_D2DMulticast.ueD2D[35].nic.pdcpRrc  receivedPacketFromLowerLayer:vector(packetBytes)  ETV
attr interpolationmode  none
attr source  receivedPacketFromLowerLayer
vector 883  SingleCell_D2DMulticast.ueD2D[35].nic.pdcpRrc  sentPacketToUpperLayer:vector(packetBytes)  ETV
attr interpolationmode  none
attr source  sentPacketToUpperLayer
vector 877  SingleCell_D2DMulticast.ueD2D[35].udp  rcvdPk:vector(packetBytes)  ETV
attr interpolationmode  none
attr source  rcvdPk
attr title  "packets received, vector(packetBytes)"
vector 878  SingleCell_D2DMulticast.ueD2D[35].udp  passedUpPk:vector(count)  ETV
attr interpolationmode  none
attr title  "packets passed up, vector(count)"
vector 874  SingleCell_D2DMulticast.ueD2D[35].udpApp[0]  alertDelay:vector  ETV
attr source  alertDelay
attr title  "Alert Message Delay, vector"
attr unit  s
vector 875  SingleCell_D2DMulticast.ueD2D[35].udpApp[0]  alertRcvdMsg:vector  ETV
attr source  alertRcvdMsg
attr title  "Alert Messages Received, vector"
attr unit  s
vector 909  SingleCell_D2DMulticast.ueD2D[36].nic.mac  sentPacketToUpperLayer:vector(packetBytes)  ETV
attr interpolationmode  none
attr source  sentPacketToUpperLayer
vector 904  SingleCell_D2DMulticast.ueD2D[36].nic.pdcpRrc  receivedPacketFromLowerLayer:vector(packetBytes)  ETV
attr interpolationmode  none
attr source  receivedPacketFromLowerLayer
vector 905  SingleCell_D2DMulticast.ueD2D[36].nic.pdcpRrc  sentPacketToUpperLayer:vector(packetBytes)  ETV
attr interpolationmode  none
attr source  sentPacketToUpperLayer
vector 899  SingleCell_D2DMulticast.ueD2D[36].udp  rcvdPk:vector(packetBytes)  ETV
attr interpolationmode  none
attr source  rcvdPk
attr title  "packets received, vector(packetBytes)"
vector 900  SingleCell_D2DMulticast.ueD2D[36].udp  passedUpPk:vector(count)  ETV
attr interpolationmode  none
attr title  "packets passed up, vector(count)"
vector 896  SingleCell_D2DMulticast.ueD2D[36].udpApp[0]  alertDelay:vector  ETV
attr source  alertDelay
attr title  "Alert Message Delay, vector"
attr unit  s
vector 897  SingleCell_D2DMulticast.ueD2D[36].udpApp[0]  alertRcvdMsg:vector  ETV
attr source  alertRcvdMsg
attr title  "Alert Messages Received, vector"
attr unit  s
vector 931  SingleCell_D2DMulticast.ueD2D[37].nic.mac  sentPacketToUpperLayer:vector(packetBytes)  ETV
attr interpolationmode  none
attr source  sentPacketToUpperLayer
vector 926  SingleCell_D2DMulticast.ueD2D[37].nic.pdcpRrc  receivedPacketFromLowerLayer:vector(packetBytes)  ETV
attr interpolationmode  none
attr source  receivedPacketFromLowerLayer
vector 927  SingleCell_D2DMulticast.ueD2D[37].nic.pdcpRrc  sentPacketToUpperLayer:vector(packetBytes)  ETV
attr interpolationmode  none
attr source  sentPacketToUpperLayer
vector 921  SingleCell_D2DMulticast.ueD2D[37].udp  rcvdPk:vector(packetBytes)  ETV
attr interpolationmode  none
attr source  rcvdPk
attr title  "packets received, vector(packetBytes)"
vector 922  SingleCell_D2DMulticast.ueD2D[37].udp  passedUpPk:vector(count)  ETV
attr interpolationmode  none
attr title  "packets passed up, vector(count)"
vector 918  SingleCell_D2DMulticast.ueD2D[37].udpApp[0]  alertDelay:vector  ETV
attr source  alertDelay
attr title  "Alert Message Delay, vector"
attr unit  s
vector 919  SingleCell_D2DMulticast.ueD2D[37].udpApp[0]  alertRcvdMsg:vector  ETV
attr source  alertRcvdMsg
attr title  "Alert Messages Received, vector"
attr unit  s
vector 953  SingleCell_D2DMulticast.ueD2D[38].nic.mac  sentPacketToUpperLayer:vector(packetBytes)  ETV
attr interpolationmode  none
attr source  sentPacketToUpperLayer
vector 948  SingleCell_D2DMulticast.ueD2D[38].nic.pdcpRrc  receivedPacketFromLowerLayer:vector(packetBytes)  ETV
attr interpolationmode  none
attr source  receivedPacketFromLowerLayer
vector 949  SingleCell_D2DMulticast.ueD2D[38].nic.pdcpRrc  sentPacketToUpperLayer:vector(packetBytes)  ETV
attr interpolationmode  none
attr source  sentPacketToUpperLayer
vector 943  SingleCell_D2DMulticast.ueD2D[38].udp  rcvdPk:vector(packetBytes)  ETV
attr interpolationmode  none
attr source  rcvdPk
attr title  "packets received, vector(packetBytes)"
vector 944  SingleCell_D2DMulticast.ueD2D[38].udp  passedUpPk:vector(count)  ETV
attr interpolationmode  none
attr title  "packets passed up, vector(count)"
vector 940  SingleCell_D2DMulticast.ueD2D[38].udpApp[0]  alertDelay:vector  ETV
attr source  alertDelay
attr title  "Alert Message Delay, vector"
attr unit  s
vector 941  SingleCell_D2DMulticast.ueD2D[38].udpApp[0]  alertRcvdMsg:vector  ETV
attr source  alertRcvdMsg
attr title  "Alert Messages Received, vector"
attr unit  s
vector 975  SingleCell_D2DMulticast.ueD2D[39].nic.mac  sentPacketToUpperLayer:vector(packetBytes)  ETV
attr interpolationmode  none
attr source  sentPacketToUpperLayer
vector 970  SingleCell_D2DMulticast.ueD2D[39].nic.pdcpRrc  receivedPacketFromLowerLayer:vector(packetBytes)  ETV
attr interpolationmode  none
attr source  receivedPacketFromLowerLayer
vector 971  SingleCell_D2DMulticast.ueD2D[39].nic.pdcpRrc  sentPacketToUpperLayer:vector(packetBytes)  ETV
attr interpolationmode  none
attr source  sentPacketToUpperLayer
vector 965  SingleCell_D2DMulticast.ueD2D[39].udp  rcvdPk:vector(packetBytes)  ETV
attr interpolationmode  none
attr source  rcvdPk
attr title  "packets received, vector(packetBytes)"
vector 966  SingleCell_D2DMulticast.ueD2D[39].udp  passedUpPk:vector(count)  ETV
attr interpolationmode  none
attr title  "packets passed up, vector(count)"
vector 962  SingleCell_D2DMulticast.ueD2D[39].udpApp[0]  alertDelay:vector  ETV
attr source  alertDelay
attr title  "Alert Message Delay, vector"
attr unit  s
vector 963  SingleCell_D2DMulticast.ueD2D[39].udpApp[0]  alertRcvdMsg:vector  ETV
attr source  alertRcvdMsg
attr title  "Alert Messages Received, vector"
attr unit  s
vector 997  SingleCell_D2DMulticast.ueD2D[40].nic.mac  sentPacketToUpperLayer:vector(packetBytes)  ETV
attr interpolationmode  none
attr source  sentPacketToUpperLayer
vector 992  SingleCell_D2DMulticast.ueD2D[40].nic.pdcpRrc  receivedPacketFromLowerLayer:vector(packetBytes)  ETV
attr interpolationmode  none
attr source  receivedPacketFromLowerLayer
vector 993  SingleCell_D2DMulticast.ueD2D[40].nic.pdcpRrc  sentPacketToUpperLayer:vector(packetBytes)  ETV
attr interpolationmode  none
attr source  sentPacketToUpperLayer
vector 987  SingleCell_D2DMulticast.ueD2D[40].udp  rcvdPk:vector(packetBytes)  ETV
attr interpolationmode  none
attr source  rcvdPk
attr title  "packets received, vector(packetBytes)"
vector 988  SingleCell_D2DMulticast.ueD2D[40].udp  passedUpPk:vector(count)  ETV
attr interpolationmode  none
attr title  "packets passed up, vector(count)"
vector 984  SingleCell_D2DMulticast.ueD2D[40].udpApp[0]  alertDelay:vector  ETV
attr source  alertDelay
attr title  "Alert Message Delay, vector"
attr unit  s
vector 985  SingleCell_D2DMulticast.ueD2D[40].udpApp[0]  alertRcvdMsg:vector  ETV
attr source  alertRcvdMsg
attr title  "Alert Messages Received, vector"
attr unit  s
vector 1019  SingleCell_D2DMulticast.ueD2D[41].nic.mac  sentPacketToUpperLayer:vector(packetBytes)  ETV
attr interpolationmode  none
attr source  sentPacketToUpperLayer
vector 1014  SingleCell_D2DMulticast.ueD2D[41].nic.pdcpRrc  receivedPacketFromLowerLayer:vector(packetBytes)  ETV
attr interpolationmode  none
attr source  receivedPacketFromLowerLayer
vector 1015  SingleCell_D2DMulticast.ueD2D[41].nic.pdcpRrc  sentPacketToUpperLayer:vector(packetBytes)  ETV
attr interpolationmode  none
attr source  sentPacketToUpperLayer
vector 1009  SingleCell_D2DMulticast.ueD2D[41].udp  rcvdPk:vector(packetBytes)  ETV
attr interpolationmode  none
attr source  rcvdPk
attr title  "packets received, vector(packetBytes)"
vector 1010  SingleCell_D2DMulticast.ueD2D[41].udp  passedUpPk:vector(count)  ETV
attr interpolationmode  none
attr title  "packets passed up, vector(count)"
vector 1006  SingleCell_D2DMulticast.ueD2D[41].udpApp[0]  alertDelay:vector  ETV
attr source  alertDelay
attr title  "Alert Message Delay, vector"
attr unit  s
vector 1007  SingleCell_D2DMulticast.ueD2D[41].udpApp[0]  alertRcvdMsg:vector  ETV
attr source  alertRcvdMsg
attr title  "Alert Messages Received, vector"
attr unit  s
vector 1041  SingleCell_D2DMulticast.ueD2D[42].nic.mac  sentPacketToUpperLayer:vector(packetBytes)  ETV
attr interpolationmode  none
attr source  sentPacketToUpperLayer
vector 1036  SingleCell_D2DMulticast.ueD2D[42].nic.pdcpRrc  receivedPacketFromLowerLayer:vector(packetBytes)  ETV
attr interpolationmode  none
attr source  receivedPacketFromLowerLayer
vector 1037  SingleCell_D2DMulticast.ueD2D[42].nic.pdcpRrc  sentPacketToUpperLayer:vector(packetBytes)  ETV
attr interpolationmode  none
attr source  sentPacketToUpperLayer
vector 1031  SingleCell_D2DMulticast.ueD2D[42].udp  rcvdPk:vector(packetBytes)  ETV
attr interpolationmode  none
attr source  rcvdPk
attr title  "packets received, vector(packetBytes)"
vector 1032  SingleCell_D2DMulticast.ueD2D[42].udp  passedUpPk:vector(count)  ETV
attr interpolationmode  none
attr title  "packets passed up, vector(count)"
vector 1028  SingleCell_D2DMulticast.ueD2D[42].udpApp[0]  alertDelay:vector  ETV
attr source  alertDelay
attr title  "Alert Message Delay, vector"
attr unit  s
vector 1029  SingleCell_D2DMulticast.ueD2D[42].udpApp[0]  alertRcvdMsg:vector  ETV
attr source  alertRcvdMsg
attr title  "Alert Messages Received, vector"
attr unit  s
vector 1063  SingleCell_D2DMulticast.ueD2D[43].nic.mac  sentPacketToUpperLayer:vector(packetBytes)  ETV
attr interpolationmode  none
attr source  sentPacketToUpperLayer
vector 1058  SingleCell_D2DMulticast.ueD2D[43].nic.pdcpRrc  receivedPacketFromLowerLayer:vector(packetBytes)  ETV
attr interpolationmode  none
attr source  receivedPacketFromLowerLayer
vector 1059  SingleCell_D2DMulticast.ueD2D[43].nic.pdcpRrc  sentPacketToUpperLayer:vector(packetBytes)  ETV
attr interpolationmode  none
attr source  sentPacketToUpperLayer
vector 1053  SingleCell_D2DMulticast.ueD2D[43].udp  rcvdPk:vector(packetBytes)  ETV
attr interpolationmode  none
attr source  rcvdPk
attr title  "packets received, vector(packetBytes)"
vector 1054  SingleCell_D2DMulticast.ueD2D[43].udp  passedUpPk:vector(count)  ETV
attr interpolationmode  none
attr title  "packets passed up, vector(count)"
vector 1050  SingleCell_D2DMulticast.ueD2D[43].udpApp[0]  alertDelay:vector  ETV
attr source  alertDelay
attr title  "Alert Message Delay, vector"
attr unit  s
vector 1051  SingleCell_D2DMulticast.ueD2D[43].udpApp[0]  alertRcvdMsg:vector  ETV
attr source  alertRcvdMsg
attr title  "Alert Messages Received, vector"
attr unit  s
vector 1085  SingleCell_D2DMulticast.ueD2D[44].nic.mac  sentPacketToUpperLayer:vector(packetBytes)  ETV
attr interpolationmode  none
attr source  sentPacketToUpperLayer
vector 1080  SingleCell_D2DMulticast.ueD2D[44].nic.pdcpRrc  receivedPacketFromLowerLayer:vector(packetBytes)  ETV
attr interpolationmode  none
attr source  receivedPacketFromLowerLayer
vector 1081  SingleCell_D2DMulticast.ueD2D[44].nic.pdcpRrc  sentPacketToUpperLayer:vector(packetBytes)  ETV
attr interpolationmode  none
attr source  sentPacketToUpperLayer
vector 1075  SingleCell_D2DMulticast.ueD2D[44].udp  rcvdPk:vector(packetBytes)  ETV
attr interpolationmode  none
attr source  rcvdPk
attr title  "packets received, vector(packetBytes)"
vector 1076  SingleCell_D2DMulticast.ueD2D[44].udp  passedUpPk:vector(count)  ETV
attr interpolationmode  none
attr title  "packets passed up, vector(count)"
vector 1072  SingleCell_D2DMulticast.ueD2D[44].udpApp[0]  alertDelay:vector  ETV
attr source  alertDelay
attr title  "Alert Message Delay, vector"
attr unit  s
vector 1073  SingleCell_D2DMulticast.ueD2D[44].udpApp[0]  alertRcvdMsg:vector  ETV
attr source  alertRcvdMsg
attr title  "Alert Messages Received, vector"
attr unit  s
vector 1107  SingleCell_D2DMulticast.ueD2D[45].nic.mac  sentPacketToUpperLayer:vector(packetBytes)  ETV
attr interpolationmode  none
attr source  sentPacketToUpperLayer
vector 1102  SingleCell_D2DMulticast.ueD2D[45].nic.pdcpRrc  receivedPacketFromLowerLayer:vector(packetBytes)  ETV
attr interpolationmode  none
attr source  receivedPacketFromLowerLayer
vector 1103  SingleCell_D2DMulticast.ueD2D[45].nic.pdcpRrc  sentPacketToUpperLayer:vector(packetBytes)  ETV
attr interpolationmode  none
attr source  sentPacketToUpperLayer
vector 1097  SingleCell_D2DMulticast.ueD2D[45].udp  rcvdPk:vector(packetBytes)  ETV
attr interpolationmode  none
attr source  rcvdPk
attr title  "packets received, vector(packetBytes)"
vector 1098  SingleCell_D2DMulticast.ueD2D[45].udp  passedUpPk:vector(count)  ETV
attr interpolationmode  none
attr title  "packets passed up, vector(count)"
vector 1094  SingleCell_D2DMulticast.ueD2D[45].udpApp[0]  alertDelay:vector  ETV
attr source  alertDelay
attr title  "Alert Message Delay, vector"
attr unit  s
vector 1095  SingleCell_D2DMulticast.ueD2D[45].udpApp[0]  alertRcvdMsg:vector  ETV
attr source  alertRcvdMsg
attr title  "Alert Messages Received, vector"
attr unit  s
vector 1129  SingleCell_D2DMulticast.ueD2D[46].nic.mac  sentPacketToUpperLayer:vector(packetBytes)  ETV
attr interpolationmode  none
attr source  sentPacketToUpperLayer
vector 1124  SingleCell_D2DMulticast.ueD2D[46].nic.pdcpRrc  receivedPacketFromLowerLayer:vector(packetBytes)  ETV
attr interpolationmode  none
attr source  receivedPacketFromLowerLayer
vector 1125  SingleCell_D2DMulticast.ueD2D[46].nic.pdcpRrc  sentPacketToUpperLayer:vector(packetBytes)  ETV
attr interpolationmode  none
attr source  sentPacketToUpperLayer
vector 1119  SingleCell_D2DMulticast.ueD2D[46].udp  rcvdPk:vector(packetBytes)  ETV
attr interpolationmode  none
attr source  rcvdPk
attr title  "packets received, vector(packetBytes)"
vector 1120  SingleCell_D2DMulticast.ueD2D[46].udp  passedUpPk:vector(count)  ETV
attr interpolationmode  none
attr title  "packets passed up, vector(count)"
vector 1116  SingleCell_D2DMulticast.ueD2D[46].udpApp[0]  alertDelay:vector  ETV
attr source  alertDelay
attr title  "Alert Message Delay, vector"
attr unit  s
vector 1117  SingleCell_D2DMulticast.ueD2D[46].udpApp[0]  alertRcvdMsg:vector  ETV
attr source  alertRcvdMsg
attr title  "Alert Messages Received, vector"
attr unit  s
vector 1151  SingleCell_D2DMulticast.ueD2D[47].nic.mac  sentPacketToUpperLayer:vector(packetBytes)  ETV
attr interpolationmode  none
attr source  sentPacketToUpperLayer
vector 1146  SingleCell_D2DMulticast.ueD2D[47].nic.pdcpRrc  receivedPacketFromLowerLayer:vector(packetBytes)  ETV
attr interpolationmode  none
attr source  receivedPacketFromLowerLayer
vector 1147  SingleCell_D2DMulticast.ueD2D[47].nic.pdcpRrc  sentPacketToUpperLayer:vector(packetBytes)  ETV
attr interpolationmode  none
attr source  sentPacketToUpperLayer
vector 1141  SingleCell_D2DMulticast.ueD2D[47].udp  rcvdPk:vector(packetBytes)  ETV
attr interpolationmode  none
attr source  rcvdPk
attr title  "packets received, vector(packetBytes)"
vector 1142  SingleCell_D2DMulticast.ueD2D[47].udp  passedUpPk:vector(count)  ETV
attr interpolationmode  none
attr title  "packets passed up, vector(count)"
vector 1138  SingleCell_D2DMulticast.ueD2D[47].udpApp[0]  alertDelay:vector  ETV
attr source  alertDelay
attr title  "Alert Message Delay, vector"
attr unit  s
vector 1139  SingleCell_D2DMulticast.ueD2D[47].udpApp[0]  alertRcvdMsg:vector  ETV
attr source  alertRcvdMsg
attr title  "Alert Messages Received, vector"
attr unit  s
vector 1173  SingleCell_D2DMulticast.ueD2D[48].nic.mac  sentPacketToUpperLayer:vector(packetBytes)  ETV
attr interpolationmode  none
attr source  sentPacketToUpperLayer
vector 1168  SingleCell_D2DMulticast.ueD2D[48].nic.pdcpRrc  receivedPacketFromLowerLayer:vector(packetBytes)  ETV
attr interpolationmode  none
attr source  receivedPacketFromLowerLayer
vector 1169  SingleCell_D2DMulticast.ueD2D[48].nic.pdcpRrc  sentPacketToUpperLayer:vector(packetBytes)  ETV
attr interpolationmode  none
attr source  sentPacketToUpperLayer
vector 1163  SingleCell_D2DMulticast.ueD2D[48].udp  rcvdPk:vector(packetBytes)  ETV
attr interpolationmode  none
attr source  rcvdPk
attr title  "packets received, vector(packetBytes)"
vector 1164  SingleCell_D2DMulticast.ueD2D[48].udp  passedUpPk:vector(count)  ETV
attr interpolationmode  none
attr title  "packets passed up, vector(count)"
vector 1160  SingleCell_D2DMulticast.ueD2D[48].udpApp[0]  alertDelay:vector  ETV
attr source  alertDelay
attr title  "Alert Message Delay, vector"
attr unit  s
vector 1161  SingleCell_D2DMulticast.ueD2D[48].udpApp[0]  alertRcvdMsg:vector  ETV
attr source  alertRcvdMsg
attr title  "Alert Messages Received, vector"
attr unit  s
vector 1195  SingleCell_D2DMulticast.ueD2D[49].nic.mac  sentPacketToUpperLayer:vector(packetBytes)  ETV
attr interpolationmode  none
attr source  sentPacketToUpperLayer
vector 1190  SingleCell_D2DMulticast.ueD2D[49].nic.pdcpRrc  receivedPacketFromLowerLayer:vector(packetBytes)  ETV
attr interpolationmode  none
attr source  receivedPacketFromLowerLayer
vector 1191  SingleCell_D2DMulticast.ueD2D[49].nic.pdcpRrc  sentPacketToUpperLayer:vector(packetBytes)  ETV
attr interpolationmode  none
attr source  sentPacketToUpperLayer
vector 1185  SingleCell_D2DMulticast.ueD2D[49].udp  rcvdPk:vector(packetBytes)  ETV
attr interpolationmode  none
attr source  rcvdPk
attr title  "packets received, vector(packetBytes)"
vector 1186  SingleCell_D2DMulticast.ueD2D[49].udp  passedUpPk:vector(count)  ETV
attr interpolationmode  none
attr title  "packets passed up, vector(count)"
vector 1182  SingleCell_D2DMulticast.ueD2D[49].udpApp[0]  alertDelay:vector  ETV
attr source  alertDelay
attr title  "Alert Message Delay, vector"
attr unit  s
vector 1183  SingleCell_D2DMulticast.ueD2D[49].udpApp[0]  alertRcvdMsg:vector  ETV
attr source  alertRcvdMsg
attr title  "Alert Messages Received, vector"
attr unit  s
8	0	0	0
9	0	0	0
24	0	0	0
25	0	0	0
35	0	0	0
36	0	0	0
56	0	0	0
57	0	0	0
67	0	0	0
68	0	0	0
85	518	0.002	0
85	520	0.002	0
85	522	0.002	0
85	524	0.002	0
85	526	0.002	0
85	528	0.002	0
85	530	0.002	0
85	532	0.002	0
85	534	0.002	0
85	536	0.002	0
85	538	0.002	0
85	540	0.002	0
85	542	0.002	0
85	544	0.002	0
85	546	0.002	0
85	548	0.002	0
85	550	0.002	0
85	552	0.002	0
85	554	0.002	0
85	556	0.002	0
85	558	0.002	0
85	560	0.002	0
85	562	0.002	0
85	564	0.002	0
85	566	0.002	0
85	568	0.002	0
85	570	0.002	0
85	572	0.002	0
85	574	0.002	0
85	576	0.002	0
85	578	0.002	0
85	580	0.002	0
85	582	0.002	0
85	584	0.002	0
85	586	0.002	0
85	588	0.002	0
85	590	0.002	0
85	592	0.002	0
85	594	0.002	0
85	596	0.002	0
85	598	0.002	0
85	600	0.002	0
85	602	0.002	0
85	604	0.002	0
85	606	0.002	0
85	608	0.002	0
85	610	0.002	0
85	612	0.002	0
85	614	0.002	0
85	616	0.002	0
85	1024	0.008	0
85	1026	0.008	0
85	1028	0.008	0
85	1030	0.008	0
85	1032	0.008	0
85	1034	0.008	0
85	1036	0.008	0
85	1038	0.008	0
85	1040	0.008	0
85	1042	0.008	0
85	1044	0.008	0
85	1046	0.008	0
85	1048	0.008	0
85	1050	0.008	0
85	1052	0.008	0
85	1054	0.008	0
85	1056	0.008	0
85	1058	0.008	0
85	1060	0.008	0
85	1062	0.008	0
85	1064	0.008	0
85	1066	0.008	0
85	1068	0.008	0
85	1070	0.008	0
85	1072	0.008	0
85	1074	0.008	0
85	1076	0.008	0
85	1078	0.008	0
85	1080	0.008	0
85	1082	0.008	0
85	1084	0.008	0
85	1086	0.008	0
85	1088	0.008	0
85	1090	0.008	0
85	1092	0.008	0
85	1094	0.008	0
85	1096	0.008	0
85	1098	0.008	0
85	1100	0.008	0
85	1102	0.008	0
85	1104	0.008	0
85	1106	0.008	0
85	1108	0.008	0
85	1110	0.008	0
85	1112	0.008	0
85	1114	0.008	0
85	1116	0.008	0
85	1118	0.008	0
85	1120	0.008	0
85	1122	0.008	0
85	1288	0.011	0
85	1550	0.014	0
85	1552	0.014	0
85	1554	0.014	0
85	1556	0.014	0
85	1558	0.014	0
85	1560	0.014	0
85	1562	0.014	0
85	1564	0.014	0
85	1566	0.014	0
85	1568	0.014	0
85	1570	0.014	0
85	1572	0.014	0
85	1574	0.014	0
85	1576	0.014	0
85	1578	0.014	0
85	1580	0.014	0
85	1582	0.014	0
85	1584	0.014	0
85	1586	0.014	0
85	1588	0.014	0
85	1590	0.014	0
85	1592	0.014	0
85	1594	0.014	0
85	1596	0.014	0
85	1598	0.014	0
85	1600	0.014	0
85	1602	0.014	0
85	1604	0.014	0
85	1606	0.014	0
85	1608	0.014	0
85	1610	0.014	0
85	1612	0.014	0
85	1614	0.014	0
85	1616	0.014	0
85	1618	0.014	0
85	1620	0.014	0
85	1622	0.014	0
85	1624	0.014	0
85	1626	0.014	0
85	1628	0.014	0
85	1630	0.014	0
85	1632	0.014	0
85	1634	0.014	0
85	1636	0.014	0
85	1638	0.014	0
85	1640	0.014	0
85	1642	0.014	0
85	1644	0.014	0
85	1646	0.014	0
85	1648	0.014	0
85	1702	0.015	0
85	1755	0.016	0
85	2075	0.02	0
85	2077	0.02	0
85	2079	0.02	0
85	2081	0.02	0
85	2083	0.02	0
85	2085	0.02	0
85	2087	0.02	0
85	2089	0.02	0
85	2091	0.02	0
85	2093	0.02	0
85	2095	0.02	0
85	2097	0.02	0
85	2099	0.02	0
85	2101	0.02	0
85	2103	0.02	0
85	2105	0.02	0
85	2107	0.02	0
85	2109	0.02	0
85	2111	0.02	0
85	2113	0.02	0
85	2115	0.02	0
85	2117	0.02	0
85	2119	0.02	0
85	2121	0.02	0
85	2123	0.02	0
85	2125	0.02	0
85	2127	0.02	0
85	2129	0.02	0
85	2131	0.02	0
85	2133	0.02	0
85	2135	0.02	0
85	2137	0.02	0
85	2139	0.02	0
85	2141	0.02	0
85	2143	0.02	0
85	2145	0.02	0
85	2147	0.02	0
85	2149	0.02	0
85	2151	0.02	0
85	2153	0.02	0
85	2155	0.02	0
85	2157	0.02	0
85	2159	0.02	0
85	2161	0.02	0
85	2163	0.02	0
85	2165	0.02	0
85	2167	0.02	0
85	2169	0.02	0
85	2171	0.02	0
85	2173	0.02	0
85	2175	0.02	0
85	3178	0.026	0
85	3180	0.026	0
85	3182	0.026	0
85	3184	0.026	0
85	3186	0.026	0
85	3188	0.026	0
85	3190	0.026	0
85	3192	0.026	0
85	3194	0.026	0
85	3196	0.026	0
85	3198	0.026	0
85	3200	0.026	0
85	3202	0.026	0
85	3204	0.026	0
85	3206	0.026	0
85	3208	0.026	0
85	3210	0.026	0
85	3212	0.026	0
85	3214	0.026	0
85	3216	0.026	0
85	3218	0.026	0
85	3220	0.026	0
85	3222	0.026	0
85	3224	0.026	0
85	3226	0.026	0
85	3228	0.026	0
85	3230	0.026	0
85	3232	0.026	0
85	3234	0.026	0
85	3236	0.026	0
85	3238	0.026	0
85	3240	0.026	0
85	3242	0.026	0
85	3244	0.026	0
85	3246	0.026	0
85	3248	0.026	0
85	3250	0.026	0
85	3252	0.026	0
85	3254	0.026	0
85	3256	0.026	0
85	3258	0.026	0
85	3260	0.026	0
85	3262	0.026	0
85	3264	0.026	0
85	3266	0.026	0
85	3268	0.026	0
85	3270	0.026	0
85	3272	0.026	0
85	3274	0.026	0
85	3276	0.026	0
85	3644	0.031	0
85	3699	0.032	0
85	3701	0.032	0
85	3703	0.032	0
85	3705	0.032	0
85	3707	0.032	0
85	3709	0.032	0
85	3711	0.032	0
85	3713	0.032	0
85	3715	0.032	0
85	3717	0.032	0
85	3719	0.032	0
85	3721	0.032	0
85	3723	0.032	0
85	3725	0.032	0
85	3727	0.032	0
85	3729	0.032	0
85	3731	0.032	0
85	3733	0.032	0
85	3735	0.032	0
85	3737	0.032	0
85	3739	0.032	0
85	3741	0.032	0
85	3743	0.032	0
85	3745	0.032	0
85	3747	0.032	0
85	3749	0.032	0
85	3751	0.032	0
85	3753	0.032	0
85	3755	0.032	0
85	3757	0.032	0
85	3759	0.032	0
85	3761	0.032	0
85	3763	0.032	0
85	3765	0.032	0
85	3767	0.032	0
85	3769	0.032	0
85	3771	0.032	0
85	3773	0.032	0
85	3775	0.032	0
85	3777	0.032	0
85	3779	0.032	0
85	3781	0.032	0
85	3783	0.032	0
85	3785	0.032	0
85	3787	0.032	0
85	3789	0.032	0
85	3791	0.032	0
85	3793	0.032	0
85	3795	0.032	0
85	3797	0.032	0
85	3958	0.035	0
85	4061	0.036	0
85	4221	0.038	0
85	4223	0.038	0
85	4225	0.038	0
85	4227	0.038	0
85	4229	0.038	0
85	4231	0.038	0
85	4233	0.038	0
85	4235	0.038	0
85	4237	0.038	0
85	4239	0.038	0
85	4241	0.038	0
85	4243	0.038	0
85	4245	0.038	0
85	4247	0.038	0
85	4249	0.038	0
85	4251	0.038	0
85	4253	0.038	0
85	4255	0.038	0
85	4257	0.038	0
85	4259	0.038	0
85	4261	0.038	0
85	4263	0.038	0
85	4265	0.038	0
85	4267	0.038	0
85	4269	0.038	0
85	4271	0.038	0
85	4273	0.038	0
85	4275	0.038	0
85	4277	0.038	0
85	4279	0.038	0
85	4281	0.038	0
85	4283	0.038	0
85	4285	0.038	0
85	4287	0.038	0
85	4289	0.038	0
85	4291	0.038	0
85	4293	0.038	0
85	4295	0.038	0
85	4297	0.038	0
85	4299	0.038	0
85	4301	0.038	0
85	4303	0.038	0
85	4305	0.038	0
85	4307	0.038	0
85	4309	0.038	0
85	4311	0.038	0
85	4313	0.038	0
85	4315	0.038	0
85	4317	0.038	0
85	4319	0.038	0
85	4431	0.04	0
85	5319	0.044	0
85	5321	0.044	0
85	5323	0.044	0
85	5325	0.044	0
85	5327	0.044	0
85	5329	0.044	0
85	5331	0.044	0
85	5333	0.044	0
85	5335	0.044	0
85	5337	0.044	0
85	5339	0.044	0
85	5341	0.044	0
85	5343	0.044	0
85	5345	0.044	0
85	5347	0.044	0
85	5349	0.044	0
85	5351	0.044	0
85	5353	0.044	0
85	5355	0.044	0
85	5357	0.044	0
85	5359	0.044	0
85	5361	0.044	0
85	5363	0.044	0
85	5365	0.044	0
85	5367	0.044	0
85	5369	0.044	0
85	5371	0.044	0
85	5373	0.044	0
85	5375	0.044	0
85	5377	0.044	0
85	5379	0.044	0
85	5381	0.044	0
85	5383	0.044	0
85	5385	0.044	0
85	5387	0.044	0
85	5389	0.044	0
85	5391	0.044	0
85	5393	0.044	0
85	5395	0.044	0
85	5397	0.044	0
85	5399	0.044	0
85	5401	0.044	0
85	5403	0.044	0
85	5405	0.044	0
85	5407	0.044	0
85	5409	0.044	0
85	5411	0.044	0
85	5413	0.044	0
85	5415	0.044	0
85	5417	0.044	0
85	5840	0.05	0
85	5842	0.05	0
85	5844	0.05	0
85	5846	0.05	0
85	5848	0.05	0
85	5850	0.05	0
85	5852	0.05	0
85	5854	0.05	0
85	5856	0.05	0
85	5858	0.05	0
85	5860	0.05	0
85	5862	0.05	0
85	5864	0.05	0
85	5866	0.05	0
85	5868	0.05	0
85	5870	0.05	0
85	5872	0.05	0
85	5874	0.05	0
85	5876	0.05	0
85	5878	0.05	0
85	5880	0.05	0
85	5882	0.05	0
85	5884	0.05	0
85	5886	0.05	0
85	5888	0.05	0
85	5890	0.05	0
85	5892	0.05	0
[...]
1191	61030	0.524	38
1191	63386	0.544	38
1191	65692	0.564	38
1191	67998	0.584	38
1191	70354	0.604	38
1191	72660	0.624	38
1191	74966	0.644	38
1191	77313	0.664	38
1191	79619	0.684	38
1191	81925	0.704	38
1191	84281	0.724	38
1191	86587	0.744	38
1191	88893	0.764	38
1191	91249	0.784	38
1191	93555	0.804	38
1191	95861	0.824	38
1191	98217	0.844	38
1191	100523	0.864	38
1191	102829	0.884	38
1191	105185	0.904	38
1191	107491	0.924	38
1191	109797	0.944	38
1191	112153	0.964	38
1191	114459	0.984	38
1191	116765	1.004	38
1191	119121	1.024	38
1191	121427	1.044	38
1191	123733	1.064	38
1191	126089	1.084	38
1191	128386	1.104	38
1191	130692	1.124	38
1191	133039	1.144	38
1191	135345	1.164	38
1191	137651	1.184	38
1191	140007	1.204	38
1191	142313	1.224	38
1191	144619	1.244	38
1191	146966	1.264	38
1191	149272	1.284	38
1191	151578	1.304	38
1191	153934	1.324	38
1191	156240	1.344	38
1191	158546	1.364	38
1191	160902	1.384	38
1191	163208	1.404	38
1191	165514	1.424	38
1191	167870	1.444	38
1191	170176	1.464	38
1191	172482	1.484	38
1191	174838	1.504	38
1191	177144	1.524	38
1191	179450	1.544	38
1191	181806	1.564	38
1191	184112	1.584	38
1191	186418	1.604	38
1191	188774	1.624	38
1191	191080	1.644	38
1191	193386	1.664	38
1191	195742	1.684	38
1191	198039	1.704	38
1191	200345	1.724	38
1191	202701	1.744	38
1191	205007	1.764	38
1191	207313	1.784	38
1191	209669	1.804	38
1191	211975	1.824	38
1191	214281	1.844	38
1191	216637	1.864	38
1191	218943	1.884	38
1191	221249	1.904	38
1191	223596	1.924	38
1191	225902	1.944	38
1191	228208	1.964	38
1191	230564	1.984	38
1191	232870	2.004	38
1191	235176	2.024	38
1191	237532	2.044	38
1191	239838	2.064	38
1191	242144	2.084	38
1191	244500	2.104	38
1191	246806	2.124	38
1191	249112	2.144	38
1191	251459	2.164	38
1191	253765	2.184	38
1191	256071	2.204	38
1191	258427	2.224	38
1191	260733	2.244	38
1191	263039	2.264	38
1191	265395	2.284	38
1191	267701	2.304	38
1191	270007	2.324	38
1191	272363	2.344	38
1191	274669	2.364	38
1191	276975	2.384	38
1191	279322	2.404	38
1191	281628	2.424	38
1191	283934	2.444	38
1191	286290	2.464	38
1191	288596	2.484	38
1191	290902	2.504	38
1191	293258	2.524	38
1191	295564	2.544	38
1191	297870	2.564	38
1191	300226	2.584	38
1191	302523	2.604	38
1191	304820	2.624	38
1191	307176	2.644	38
1191	309482	2.664	38
1191	311788	2.684	38
1191	314144	2.704	38
1191	316450	2.724	38
1191	318756	2.744	38
1191	321112	2.764	38
1191	323409	2.784	38
1191	325715	2.804	38
1191	328062	2.824	38
1191	330368	2.844	38
1191	332674	2.864	38
1191	335030	2.884	38
1191	337336	2.904	38
1191	339642	2.924	38
1191	341989	2.944	38
1191	344286	2.964	38
1191	346592	2.984	38
1191	348948	3.004	38
1191	351254	3.024	38
1191	353560	3.044	38
1191	355916	3.064	38
1191	358222	3.084	38
1191	360528	3.104	38
1191	362884	3.124	38
1191	365172	3.144	38
1191	367478	3.164	38
1191	369834	3.184	38
1191	372140	3.204	38
1191	374446	3.224	38
1191	376802	3.244	38
1191	379108	3.264	38
1191	381414	3.284	38
1191	383761	3.304	38
1191	386067	3.324	38
1191	388373	3.344	38
1191	390729	3.364	38
1191	393035	3.384	38
1191	395341	3.404	38
1191	397697	3.424	38
1191	400003	3.444	38
1191	402309	3.464	38
1191	404665	3.484	38
1191	406971	3.504	38
1191	409277	3.524	38
1191	411624	3.544	38
1191	413930	3.564	38
1191	416236	3.584	38
1191	418592	3.604	38
1191	420898	3.624	38
1191	423204	3.644	38
1191	425560	3.664	38
1191	427866	3.684	38
1191	430172	3.704	38
1191	432528	3.724	38
1191	434834	3.744	38
1191	437140	3.764	38
1191	439496	3.784	38
1191	441802	3.804	38
1191	444108	3.824	38
1191	446464	3.844	38
1191	448770	3.864	38
1191	451067	3.884	38
1191	453423	3.904	38
1191	455720	3.924	38
1191	458026	3.944	38
1191	460382	3.964	38
1191	462688	3.984	38
1191	464994	4.004	38
1191	467350	4.024	38
1191	469656	4.044	38
1191	471962	4.064	38
1191	474318	4.084	38
1191	476624	4.104	38
1191	478930	4.124	38
1191	481286	4.144	38
1191	483592	4.164	38
1191	485898	4.184	38
1191	488245	4.204	38
1191	490551	4.224	38
1191	492857	4.244	38
1191	495213	4.264	38
1191	497519	4.284	38
1191	499825	4.304	38
1191	502181	4.324	38
1191	504487	4.344	38
1191	506793	4.364	38
1191	509149	4.384	38
1191	511455	4.404	38
1191	513761	4.424	38
1191	516117	4.444	38
1191	518423	4.464	38
1191	520729	4.484	38
1191	523085	4.504	38
1191	525391	4.524	38
1191	527697	4.544	38
1191	530053	4.564	38
1191	532359	4.584	38
1191	534665	4.604	38
1191	537021	4.624	38
1191	539327	4.644	38
1191	541633	4.664	38
1191	543989	4.684	38
1191	546295	4.704	38
1191	548601	4.724	38
1191	550957	4.744	38
1191	553263	4.764	38
1191	555569	4.784	38
1191	557925	4.804	38
1191	560231	4.824	38
1191	562537	4.844	38
1191	564893	4.864	38
1191	567199	4.884	38
1191	569505	4.904	38
1191	571861	4.924	38
1191	574167	4.944	38
1191	576473	4.964	38
1191	578829	4.984	38
1194	2374	0.021	0
1194	4630	0.041	0
1194	6977	0.061	0
1194	9333	0.081	0
1194	11589	0.101	0
1194	13945	0.121	0
1194	16301	0.141	0
1194	18557	0.161	0
1194	20913	0.181	0
1194	23269	0.201	0
1194	25525	0.221	0
1194	27881	0.241	0
1194	30237	0.261	0
1194	32493	0.281	0
1194	34849	0.301	0
1194	37196	0.321	0
1194	39443	0.341	0
1194	41799	0.361	0
1194	44155	0.381	0
1194	46402	0.401	0
1194	48758	0.421	0
1194	51114	0.441	0
1194	53370	0.461	0
1194	55726	0.481	0
1194	58082	0.501	0
1194	60338	0.521	0
1194	62694	0.541	0
1194	65050	0.561	0
1194	67306	0.581	0
1194	69662	0.601	0
1194	72018	0.621	0
1194	74274	0.641	0
1194	76630	0.661	0
1194	78977	0.681	0
1194	81233	0.701	0
1194	83589	0.721	0
1194	85945	0.741	0
1194	88201	0.761	0
1194	90557	0.781	0
1194	92913	0.801	0
1194	95169	0.821	0
1194	97525	0.841	0
1194	99881	0.861	0
1194	102137	0.881	0
1194	104493	0.901	0
1194	106849	0.921	0
1194	109105	0.941	0
1194	111461	0.961	0
1194	113817	0.981	0
1194	116073	1.001	0
1194	118429	1.021	0
1194	120785	1.041	0
1194	123041	1.061	0
1194	125397	1.081	0
1194	127753	1.101	0
1194	130000	1.121	0
1194	132356	1.141	0
1194	134703	1.161	0
1194	136959	1.181	0
1194	139315	1.201	0
1194	141671	1.221	0
1194	143927	1.241	0
1194	146283	1.261	0
1194	148630	1.281	0
1194	150886	1.301	0
1194	153242	1.321	0
1194	155598	1.341	0
1194	157854	1.361	0
1194	160210	1.381	0
1194	162566	1.401	0
1194	164822	1.421	0
1194	167178	1.441	0
1194	169534	1.461	0
1194	171790	1.481	0
1194	174146	1.501	0
1194	176502	1.521	0
1194	178758	1.541	0
1194	181114	1.561	0
1194	183470	1.581	0
1194	185726	1.601	0
1194	188082	1.621	0
1194	190438	1.641	0
1194	192694	1.661	0
1194	195050	1.681	0
1194	197406	1.701	0
1194	199653	1.721	0
1194	202009	1.741	0
1194	204365	1.761	0
1194	206621	1.781	0
1194	208977	1.801	0
1194	211333	1.821	0
1194	213589	1.841	0
1194	215945	1.861	0
1194	218301	1.881	0
1194	220557	1.901	0
1194	222913	1.921	0
1194	225260	1.941	0
1194	227516	1.961	0
1194	229872	1.981	0
1194	232228	2.001	0
1194	234484	2.021	0
1194	236840	2.041	0
1194	239196	2.061	0
1194	241452	2.081	0
1194	243808	2.101	0
1194	246164	2.121	0
1194	248420	2.141	0
1194	250776	2.161	0
1194	253123	2.181	0
1194	255379	2.201	0
1194	257735	2.221	0
1194	260091	2.241	0
1194	262347	2.261	0
1194	264703	2.281	0
1194	267059	2.301	0
1194	269315	2.321	0
1194	271671	2.341	0
1194	274027	2.361	0
1194	276283	2.381	0
1194	278639	2.401	0
1194	280986	2.421	0
1194	283242	2.441	0
1194	285598	2.461	0
1194	287954	2.481	0
1194	290210	2.501	0
1194	292566	2.521	0
1194	294922	2.541	0
1194	297178	2.561	0
1194	299534	2.581	0
1194	301890	2.601	0
1194	304137	2.621	0
1194	306484	2.641	0
1194	308840	2.661	0
1194	311096	2.681	0
1194	313452	2.701	0
1194	315808	2.721	0
1194	318064	2.741	0
1194	320420	2.761	0
1194	322776	2.781	0
1194	325023	2.801	0
1194	327379	2.821	0
1194	329726	2.841	0
1194	331982	2.861	0
1194	334338	2.881	0
1194	336694	2.901	0
1194	338950	2.921	0
1194	341306	2.941	0
1194	343653	2.961	0
1194	345900	2.981	0
1194	348256	3.001	0
1194	350612	3.021	0
1194	352868	3.041	0
1194	355224	3.061	0
1194	357580	3.081	0
1194	359836	3.101	0
1194	362192	3.121	0
1194	364548	3.141	0
1194	366786	3.161	0
1194	369142	3.181	0
1194	371498	3.201	0
1194	373754	3.221	0
1194	376110	3.241	0
1194	378466	3.261	0
1194	380722	3.281	0
1194	383078	3.301	0
1194	385425	3.321	0
1194	387681	3.341	0
1194	390037	3.361	0
1194	392393	3.381	0
1194	394649	3.401	0
1194	397005	3.421	0
1194	399361	3.441	0
1194	401617	3.461	0
1194	403973	3.481	0
1194	406329	3.501	0
1194	408585	3.521	0
1194	410941	3.541	0
1194	413288	3.561	0
1194	415544	3.581	0
1194	417900	3.601	0
1194	420256	3.621	0
1194	422512	3.641	0
1194	424868	3.661	0
1194	427224	3.681	0
1194	429480	3.701	0
1194	431836	3.721	0
1194	434192	3.741	0
1194	436448	3.761	0
1194	438804	3.781	0
1194	441160	3.801	0
1194	443416	3.821	0
1194	445772	3.841	0
1194	448128	3.861	0
1194	450384	3.881	0
1194	452731	3.901	0
1194	455087	3.921	0
1194	457334	3.941	0
1194	459690	3.961	0
1194	462046	3.981	0
1194	464302	4.001	0
1194	466658	4.021	0
1194	469014	4.041	0
1194	471270	4.061	0
1194	473626	4.081	0
1194	475982	4.101	0
1194	478238	4.121	0
1194	480594	4.141	0
1194	482950	4.161	0
1194	485206	4.181	0
1194	487562	4.201	0
1194	489909	4.221	0
1194	492165	4.241	0
1194	494521	4.261	0
1194	496877	4.281	0
1194	499133	4.301	0
1194	501489	4.321	0
1194	503845	4.341	0
1194	506101	4.361	0
1194	508457	4.381	0
1194	510813	4.401	0
1194	513069	4.421	0
1194	515425	4.441	0
1194	517781	4.461	0
1194	520037	4.481	0
1194	522393	4.501	0
1194	524749	4.521	0
1194	527005	4.541	0
1194	529361	4.561	0
1194	531717	4.581	0
1194	533973	4.601	0
1194	536329	4.621	0
1194	538685	4.641	0
1194	540941	4.661	0
1194	543297	4.681	0
1194	545653	4.701	0
1194	547909	4.721	0
1194	550265	4.741	0
1194	552621	4.761	0
1194	554877	4.781	0
1194	557233	4.801	0
1194	559589	4.821	0
1194	561845	4.841	0
1194	564201	4.861	0
1194	566557	4.881	0
1194	568813	4.901	0
1194	571169	4.921	0
1194	573525	4.941	0
1194	575781	4.961	0
1194	578137	4.981	0
1195	3011	0.024	30
1195	3011	0.024	11
1195	5308	0.044	30
1195	5308	0.044	11
1195	7664	0.064	30
1195	7664	0.064	11
1195	9970	0.084	30
1195	9970	0.084	11
1195	12276	0.104	30
1195	12276	0.104	11
1195	14632	0.124	30
1195	14632	0.124	11
1195	16938	0.144	30
1195	16938	0.144	11
1195	19244	0.164	30
1195	19244	0.164	11
1195	21600	0.184	30
1195	21600	0.184	11
1195	23906	0.204	30
1195	23906	0.204	11
1195	26212	0.224	30
1195	26212	0.224	11
1195	28568	0.244	30
1195	28568	0.244	11
1195	30874	0.264	30
1195	30874	0.264	11
1195	33180	0.284	30
1195	33180	0.284	11
1195	35527	0.304	30
1195	35527	0.304	11
1195	37824	0.324	30
1195	37824	0.324	11
1195	40130	0.344	30
1195	40130	0.344	11
1195	42486	0.364	30
1195	42486	0.364	11
1195	44783	0.384	30
1195	44783	0.384	11
1195	47089	0.404	30
1195	47089	0.404	11
1195	49445	0.424	30
1195	49445	0.424	11
1195	51751	0.444	30
1195	51751	0.444	11
1195	54057	0.464	30
1195	54057	0.464	11
1195	56413	0.484	30
1195	56413	0.484	11
1195	58719	0.504	30
1195	58719	0.504	11
1195	61025	0.524	30
1195	61025	0.524	11
1195	63381	0.544	30
1195	63381	0.544	11
1195	65687	0.564	30
1195	65687	0.564	11
1195	67993	0.584	30
1195	67993	0.584	11
1195	70349	0.604	30
1195	70349	0.604	11
1195	72655	0.624	30
1195	72655	0.624	11
1195	74961	0.644	30
1195	74961	0.644	11
1195	77308	0.664	30
1195	77308	0.664	11
1195	79614	0.684	30
1195	79614	0.684	11
1195	81920	0.704	30
1195	81920	0.704	11
1195	84276	0.724	30
1195	84276	0.724	11
1195	86582	0.744	30
1195	86582	0.744	11
1195	88888	0.764	30
1195	88888	0.764	11
1195	91244	0.784	30
1195	91244	0.784	11
1195	93550	0.804	30
1195	93550	0.804	11
1195	95856	0.824	30
1195	95856	0.824	11
1195	98212	0.844	30
1195	98212	0.844	11
1195	100518	0.864	30
1195	100518	0.864	11
1195	102824	0.884	30
1195	102824	0.884	11
1195	105180	0.904	30
1195	105180	0.904	11
1195	107486	0.924	30
1195	107486	0.924	11
1195	109792	0.944	30
1195	109792	0.944	11
1195	112148	0.964	30
1195	112148	0.964	11
1195	114454	0.984	30
1195	114454	0.984	11
1195	116760	1.004	30
1195	116760	1.004	11
1195	119116	1.024	30
1195	119116	1.024	11
1195	121422	1.044	30
1195	121422	1.044	11
1195	123728	1.064	30
1195	123728	1.064	11
1195	126084	1.084	30
1195	126084	1.084	11
1195	128381	1.104	30
1195	128381	1.104	11
1195	130687	1.124	30
1195	130687	1.124	11
1195	133034	1.144	30
1195	133034	1.144	11
1195	135340	1.164	30
1195	135340	1.164	11
1195	137646	1.184	30
1195	137646	1.184	11
1195	140002	1.204	30
1195	140002	1.204	11
1195	142308	1.224	30
1195	142308	1.224	11
1195	144614	1.244	30
1195	144614	1.244	11
1195	146961	1.264	30
1195	146961	1.264	11
1195	149267	1.284	30
1195	149267	1.284	11
1195	151573	1.304	30
1195	151573	1.304	11
1195	153929	1.324	30
1195	153929	1.324	11
1195	156235	1.344	30
1195	156235	1.344	11
1195	158541	1.364	30
1195	158541	1.364	11
1195	160897	1.384	30
1195	160897	1.384	11
1195	163203	1.404	30
1195	163203	1.404	11
1195	165509	1.424	30
1195	165509	1.424	11
1195	167865	1.444	30
1195	167865	1.444	11
1195	170171	1.464	30
1195	170171	1.464	11
1195	172477	1.484	30
1195	172477	1.484	11
1195	174833	1.504	30
1195	174833	1.504	11
1195	177139	1.524	30
1195	177139	1.524	11
1195	179445	1.544	30
1195	179445	1.544	11
1195	181801	1.564	30
1195	181801	1.564	11
1195	184107	1.584	30
1195	184107	1.584	11
1195	186413	1.604	30
1195	186413	1.604	11
1195	188769	1.624	30
1195	188769	1.624	11
1195	191075	1.644	30
1195	191075	1.644	11
1195	193381	1.664	30
1195	193381	1.664	11
1195	195737	1.684	30
1195	195737	1.684	11
1195	198034	1.704	30
1195	198034	1.704	11
1195	200340	1.724	30
1195	200340	1.724	11
1195	202696	1.744	30
1195	202696	1.744	11
1195	205002	1.764	30
1195	205002	1.764	11
1195	207308	1.784	30
1195	207308	1.784	11
1195	209664	1.804	30
1195	209664	1.804	11
1195	211970	1.824	30
1195	211970	1.824	11
1195	214276	1.844	30
1195	214276	1.844	11
1195	216632	1.864	30
1195	216632	1.864	11
1195	218938	1.884	30
1195	218938	1.884	11
1195	221244	1.904	30
1195	221244	1.904	11
1195	223591	1.924	30
1195	223591	1.924	11
1195	225897	1.944	30
1195	225897	1.944	11
1195	228203	1.964	30
1195	228203	1.964	11
1195	230559	1.984	30
1195	230559	1.984	11
1195	232865	2.004	30
1195	232865	2.004	11
1195	235171	2.024	30
1195	235171	2.024	11
1195	237527	2.044	30
1195	237527	2.044	11
1195	239833	2.064	30
1195	239833	2.064	11
1195	242139	2.084	30
1195	242139	2.084	11
1195	244495	2.104	30
1195	244495	2.104	11
1195	246801	2.124	30
1195	246801	2.124	11
1195	249107	2.144	30
1195	249107	2.144	11
1195	251454	2.164	30
1195	251454	2.164	11
1195	253760	2.184	30
1195	253760	2.184	11
1195	256066	2.204	30
1195	256066	2.204	11
1195	258422	2.224	30
1195	258422	2.224	11
1195	260728	2.244	30
1195	260728	2.244	11
1195	263034	2.264	30
1195	263034	2.264	11
1195	265390	2.284	30
1195	265390	2.284	11
1195	267696	2.304	30
1195	267696	2.304	11
1195	270002	2.324	30
1195	270002	2.324	11
1195	272358	2.344	30
1195	272358	2.344	11
1195	274664	2.364	30
1195	274664	2.364	11
1195	276970	2.384	30
1195	276970	2.384	11
1195	279317	2.404	30
1195	279317	2.404	11
1195	281623	2.424	30
1195	281623	2.424	11
1195	283929	2.444	30
1195	283929	2.444	11
1195	286285	2.464	30
1195	286285	2.464	11
1195	288591	2.484	30
1195	288591	2.484	11
1195	290897	2.504	30
1195	290897	2.504	11
1195	293253	2.524	30
1195	293253	2.524	11
1195	295559	2.544	30
1195	295559	2.544	11
1195	297865	2.564	30
1195	297865	2.564	11
1195	300221	2.584	30
1195	300221	2.584	11
1195	302518	2.604	30
1195	302518	2.604	11
1195	304815	2.624	30
1195	304815	2.624	11
1195	307171	2.644	30
1195	307171	2.644	11
1195	309477	2.664	30
1195	309477	2.664	11
1195	311783	2.684	30
1195	311783	2.684	11
1195	314139	2.704	30
1195	314139	2.704	11
1195	316445	2.724	30
1195	316445	2.724	11
1195	318751	2.744	30
1195	318751	2.744	11
1195	321107	2.764	30
1195	321107	2.764	11
1195	323404	2.784	30
1195	323404	2.784	11
1195	325710	2.804	30
1195	325710	2.804	11
1195	328057	2.824	30
1195	328057	2.824	11
1195	330363	2.844	30
1195	330363	2.844	11
1195	332669	2.864	30
1195	332669	2.864	11
1195	335025	2.884	30
1195	335025	2.884	11
1195	337331	2.904	30
1195	337331	2.904	11
1195	339637	2.924	30
1195	339637	2.924	11
1195	341984	2.944	30
1195	341984	2.944	11
1195	344281	2.964	30
1195	344281	2.964	11
1195	346587	2.984	30
1195	346587	2.984	11
1195	348943	3.004	30
1195	348943	3.004	11
1195	351249	3.024	30
1195	351249	3.024	11
1195	353555	3.044	30
1195	353555	3.044	11
1195	355911	3.064	30
1195	355911	3.064	11
1195	358217	3.084	30
1195	358217	3.084	11
1195	360523	3.104	30
1195	360523	3.104	11
1195	362879	3.124	30
1195	362879	3.124	11
1195	365167	3.144	30
1195	365167	3.144	11
1195	367473	3.164	30
1195	367473	3.164	11
1195	369829	3.184	30
1195	369829	3.184	11
1195	372135	3.204	30
1195	372135	3.204	11
1195	374441	3.224	30
1195	374441	3.224	11
1195	376797	3.244	30
1195	376797	3.244	11
1195	379103	3.264	30
1195	379103	3.264	11
1195	381409	3.284	30
1195	381409	3.284	11
1195	383756	3.304	30
1195	383756	3.304	11
1195	386062	3.324	30
1195	386062	3.324	11
1195	388368	3.344	30
1195	388368	3.344	11
1195	390724	3.364	30
1195	390724	3.364	11
1195	393030	3.384	30
1195	393030	3.384	11
1195	395336	3.404	30
1195	395336	3.404	11
1195	397692	3.424	30
1195	397692	3.424	11
1195	399998	3.444	30
1195	399998	3.444	11
1195	402304	3.464	30
1195	402304	3.464	11
1195	404660	3.484	30
1195	404660	3.484	11
1195	406966	3.504	30
1195	406966	3.504	11
1195	409272	3.524	30
1195	409272	3.524	11
1195	411619	3.544	30
1195	411619	3.544	11
1195	413925	3.564	30
1195	413925	3.564	11
1195	416231	3.584	30
1195	416231	3.584	11
1195	418587	3.604	30
1195	418587	3.604	11
1195	420893	3.624	30
1195	420893	3.624	11
1195	423199	3.644	30
1195	423199	3.644	11
1195	425555	3.664	30
1195	425555	3.664	11
1195	427861	3.684	30
1195	427861	3.684	11
1195	430167	3.704	30
1195	430167	3.704	11
1195	432523	3.724	30
1195	432523	3.724	11
1195	434829	3.744	30
1195	434829	3.744	11
1195	437135	3.764	30
1195	437135	3.764	11
1195	439491	3.784	30
1195	439491	3.784	11
1195	441797	3.804	30
1195	441797	3.804	11
1195	444103	3.824	30
1195	444103	3.824	11
1195	446459	3.844	30
1195	446459	3.844	11
1195	448765	3.864	30
1195	448765	3.864	11
1195	451062	3.884	30
1195	451062	3.884	11
1195	453418	3.904	30
1195	453418	3.904	11
1195	455715	3.924	30
1195	455715	3.924	11
1195	458021	3.944	30
1195	458021	3.944	11
1195	460377	3.964	30
1195	460377	3.964	11
1195	462683	3.984	30
1195	462683	3.984	11
1195	464989	4.004	30
1195	464989	4.004	11
1195	467345	4.024	30
1195	467345	4.024	11
1195	469651	4.044	30
1195	469651	4.044	11
1195	471957	4.064	30
1195	471957	4.064	11
1195	474313	4.084	30
1195	474313	4.084	11
1195	476619	4.104	30
1195	476619	4.104	11
1195	478925	4.124	30
1195	478925	4.124	11
1195	481281	4.144	30
1195	481281	4.144	11
1195	483587	4.164	30
1195	483587	4.164	11
1195	485893	4.184	30
1195	485893	4.184	11
1195	488240	4.204	30
1195	488240	4.204	11
1195	490546	4.224	30
1195	490546	4.224	11
1195	492852	4.244	30
1195	492852	4.244	11
1195	495208	4.264	30
1195	495208	4.264	11
1195	497514	4.284	30
1195	497514	4.284	11
1195	499820	4.304	30
1195	499820	4.304	11
1195	502176	4.324	30
1195	502176	4.324	11
1195	504482	4.344	30
1195	504482	4.344	11
1195	506788	4.364	30
1195	506788	4.364	11
1195	509144	4.384	30
1195	509144	4.384	11
1195	511450	4.404	30
1195	511450	4.404	11
1195	513756	4.424	30
1195	513756	4.424	11
1195	516112	4.444	30
1195	516112	4.444	11
1195	518418	4.464	30
1195	518418	4.464	11
1195	520724	4.484	30
1195	520724	4.484	11
1195	523080	4.504	30
1195	523080	4.504	11
1195	525386	4.524	30
1195	525386	4.524	11
1195	527692	4.544	30
1195	527692	4.544	11
1195	530048	4.564	30
1195	530048	4.564	11
1195	532354	4.584	30
1195	532354	4.584	11
1195	534660	4.604	30
1195	534660	4.604	11
1195	537016	4.624	30
1195	537016	4.624	11
1195	539322	4.644	30
1195	539322	4.644	11
1195	541628	4.664	30
1195	541628	4.664	11
1195	543984	4.684	30
1195	543984	4.684	11
1195	546290	4.704	30
1195	546290	4.704	11
1195	548596	4.724	30
1195	548596	4.724	11
1195	550952	4.744	30
1195	550952	4.744	11
1195	553258	4.764	30
1195	553258	4.764	11
1195	555564	4.784	30
1195	555564	4.784	11
1195	557920	4.804	30
1195	557920	4.804	11
1195	560226	4.824	30
1195	560226	4.824	11
1195	562532	4.844	30
1195	562532	4.844	11
1195	564888	4.864	30
1195	564888	4.864	11
1195	567194	4.884	30
1195	567194	4.884	11
1195	569500	4.904	30
1195	569500	4.904	11
1195	571856	4.924	30
1195	571856	4.924	11
1195	574162	4.944	30
1195	574162	4.944	11
1195	576468	4.964	30
1195	576468	4.964	11
1195	578824	4.984	30
1195	578824	4.984	11
