version 2
run SinglePair-0-20170310-12:45:02-31425
attr configname SinglePair
attr datetime 20170310-12:45:02
attr experiment SinglePair
attr inifile omnetpp.ini
attr iterationvars ""
attr iterationvars2 $repetition=0
attr measurement ""
attr network lte.simulations.networks.SingleCell_D2D
attr processid 31425
attr repetition 0
attr replication #0
attr resultdir results
attr runnumber 0
attr seedset 0
param **.channelControl.alpha 1.0
param **.channelControl.carrierFrequency 2100e+6Hz
param **.channelControl.pMax 10W
param **.deployer.numRbDl 50
param **.deployer.numRbUl 50
param **.fbDelay 1
param **.feedbackComputation "xmldoc(\"config_channel.xml\")"
param **.mobility.constraintAreaMaxZ 0m
param **.mobility.constraintAreaMinZ 0m
param **.nic.phy.channelModel "xmldoc(\"config_channel.xml\")"
param **.numBands 50
param **.rbAllocationType "\"localized\""
param **.routingRecorder.enabled false
param *.eNodeB.mobility.initFromDisplayString false
param *.eNodeB.mobility.initialX 300m
param *.eNodeB.mobility.initialY 300m
param *.numUeCell 0
param *.numUeD2DRx 1
param *.numUeD2DTx 1
param *.ue*[0].macCellId 1
param *.ue*[0].masterId 1
param *.ue*[0].mobility.initFromDisplayString false
param *.ueD2DRx[0].mobility.initialX 310m
param *.ueD2DRx[0].mobility.initialY 350m
param *.ueD2DTx[0].mobility.initialX 290m
param *.ueD2DTx[0].mobility.initialY 350m

vector 8  SingleCell_D2D.server.ppp[0].queue  queueLength:vector  ETV
attr interpolationmode  sample-hold
attr title  "queue length, vector"
vector 9  SingleCell_D2D.server.ppp[0].ppp  txState:vector  ETV
attr interpolationmode  sample-hold
attr title  "tx state, vector"
vector 24  SingleCell_D2D.router.ppp[0].queue  queueLength:vector  ETV
attr interpolationmode  sample-hold
attr title  "queue length, vector"
vector 25  SingleCell_D2D.router.ppp[0].ppp  txState:vector  ETV
attr interpolationmode  sample-hold
attr title  "tx state, vector"
vector 35  SingleCell_D2D.router.ppp[1].queue  queueLength:vector  ETV
attr interpolationmode  sample-hold
attr title  "queue length, vector"
vector 36  SingleCell_D2D.router.ppp[1].ppp  txState:vector  ETV
attr interpolationmode  sample-hold
attr title  "tx state, vector"
vector 56  SingleCell_D2D.pgw.ppp[0].queue  queueLength:vector  ETV
attr interpolationmode  sample-hold
attr title  "queue length, vector"
vector 57  SingleCell_D2D.pgw.ppp[0].ppp  txState:vector  ETV
attr interpolationmode  sample-hold
attr title  "tx state, vector"
vector 67  SingleCell_D2D.pgw.pppInterface.queue  queueLength:vector  ETV
attr interpolationmode  sample-hold
attr title  "queue length, vector"
vector 68  SingleCell_D2D.pgw.pppInterface.ppp  txState:vector  ETV
attr interpolationmode  sample-hold
attr title  "tx state, vector"
vector 95  SingleCell_D2D.eNodeB.ppp.queue  queueLength:vector  ETV
attr interpolationmode  sample-hold
attr title  "queue length, vector"
vector 96  SingleCell_D2D.eNodeB.ppp.ppp  txState:vector  ETV
attr interpolationmode  sample-hold
attr title  "tx state, vector"
vector 85  SingleCell_D2D.eNodeB.nic.mac  receivedPacketFromLowerLayer:vector(packetBytes)  ETV
attr interpolationmode  none
attr source  receivedPacketFromLowerLayer
8	0	0	0
9	0	0	0
24	0	0	0
25	0	0	0
35	0	0	0
36	0	0	0
56	0	0	0
57	0	0	0
67	0	0	0
68	0	0	0
85	32	0.002	0
85	34	0.002	0
85	64	0.008	0
85	66	0.008	0
85	96	0.014	0
85	98	0.014	0
85	128	0.02	0
85	130	0.02	0
85	160	0.026	0
85	162	0.026	0
85	192	0.032	0
85	194	0.032	0
85	224	0.038	0
85	226	0.038	0
85	256	0.044	0
85	258	0.044	0
85	288	0.05	0
85	290	0.05	0
85	320	0.056	0
85	322	0.056	0
85	352	0.062	0
85	354	0.062	0
85	384	0.068	0
85	386	0.068	0
85	416	0.074	0
85	418	0.074	0
85	448	0.08	0
85	450	0.08	0
85	480	0.086	0
85	482	0.086	0
85	512	0.092	0
85	514	0.092	0
85	544	0.098	0
85	546	0.098	0
85	576	0.104	0
85	578	0.104	0
85	608	0.11	0
85	610	0.11	0
85	640	0.116	0
85	642	0.116	0
85	672	0.122	0
85	674	0.122	0
85	704	0.128	0
85	706	0.128	0
85	736	0.134	0
85	738	0.134	0
85	768	0.14	0
85	770	0.14	0
85	800	0.146	0
85	802	0.146	0
85	832	0.152	0
85	834	0.152	0
85	864	0.158	0
85	866	0.158	0
85	896	0.164	0
85	898	0.164	0
85	928	0.17	0
85	930	0.17	0
85	960	0.176	0
85	962	0.176	0
85	992	0.182	0
85	994	0.182	0
85	1024	0.188	0
85	1026	0.188	0
85	1056	0.194	0
85	1058	0.194	0
85	1088	0.2	0
85	1090	0.2	0
85	1120	0.206	0
85	1122	0.206	0
85	1152	0.212	0
85	1154	0.212	0
85	1184	0.218	0
85	1186	0.218	0
85	1216	0.224	0
85	1218	0.224	0
85	1248	0.23	0
85	1250	0.23	0
85	1280	0.236	0
85	1282	0.236	0
85	1312	0.242	0
85	1314	0.242	0
85	1344	0.248	0
85	1346	0.248	0
85	1376	0.254	0
85	1378	0.254	0
85	1408	0.26	0
85	1410	0.26	0
85	1440	0.266	0
85	1442	0.266	0
85	1472	0.272	0
85	1474	0.272	0
85	1504	0.278	0
85	1506	0.278	0
85	1536	0.284	0
85	1538	0.284	0
85	1568	0.29	0
85	1570	0.29	0
85	1600	0.296	0
85	1602	0.296	0
85	1632	0.302	0
85	1634	0.302	0
85	1664	0.308	0
85	1666	0.308	0
85	1696	0.314	0
85	1698	0.314	0
85	1728	0.32	0
85	1730	0.32	0
85	1760	0.326	0
85	1762	0.326	0
85	1792	0.332	0
85	1794	0.332	0
85	1824	0.338	0
85	1826	0.338	0
85	1856	0.344	0
85	1858	0.344	0
85	1888	0.35	0
85	1890	0.35	0
85	1920	0.356	0
85	1922	0.356	0
85	1952	0.362	0
85	1954	0.362	0
85	1984	0.368	0
85	1986	0.368	0
85	2016	0.374	0
85	2018	0.374	0
85	2048	0.38	0
85	2050	0.38	0
85	2080	0.386	0
85	2082	0.386	0
85	2112	0.392	0
85	2114	0.392	0
85	2144	0.398	0
85	2146	0.398	0
85	2176	0.404	0
85	2178	0.404	0
85	2208	0.41	0
85	2210	0.41	0
85	2240	0.416	0
85	2242	0.416	0
85	2272	0.422	0
85	2274	0.422	0
85	2304	0.428	0
85	2306	0.428	0
85	2336	0.434	0
85	2338	0.434	0
85	2368	0.44	0
85	2370	0.44	0
85	2400	0.446	0
85	2402	0.446	0
85	2432	0.452	0
85	2434	0.452	0
85	2464	0.458	0
85	2466	0.458	0
85	2496	0.464	0
85	2498	0.464	0
85	2528	0.47	0
85	2530	0.47	0
85	2560	0.476	0
85	2562	0.476	0
85	2592	0.482	0
85	2594	0.482	0
85	2624	0.488	0
85	2626	0.488	0
85	2656	0.494	0
85	2658	0.494	0
85	2688	0.5	0
85	2690	0.5	0
85	2720	0.506	0
85	2722	0.506	0
85	2752	0.512	0
85	2754	0.512	0
85	2784	0.518	0
85	2786	0.518	0
85	2816	0.524	0
85	2818	0.524	0
85	2848	0.53	0
85	2850	0.53	0
85	2880	0.536	0
85	2882	0.536	0
85	2912	0.542	0
85	2914	0.542	0
85	2944	0.548	0
85	2946	0.548	0
85	2976	0.554	0
85	2978	0.554	0
85	3008	0.56	0
85	3010	0.56	0
85	3040	0.566	0
85	3042	0.566	0
85	3072	0.572	0
85	3074	0.572	0
85	3104	0.578	0
85	3106	0.578	0
85	3136	0.584	0
85	3138	0.584	0
85	3168	0.59	0
85	3170	0.59	0
85	3200	0.596	0
85	3202	0.596	0
85	3232	0.602	0
85	3234	0.602	0
85	3264	0.608	0
85	3266	0.608	0
85	3296	0.614	0
85	3298	0.614	0
85	3328	0.62	0
85	3330	0.62	0
85	3360	0.626	0
85	3362	0.626	0
85	3392	0.632	0
85	3394	0.632	0
85	3424	0.638	0
85	3426	0.638	0
85	3456	0.644	0
85	3458	0.644	0
85	3488	0.65	0
85	3490	0.65	0
85	3520	0.656	0
85	3522	0.656	0
85	3552	0.662	0
85	3554	0.662	0
85	3584	0.668	0
85	3586	0.668	0
85	3616	0.674	0
85	3618	0.674	0
85	3648	0.68	0
85	3650	0.68	0
85	3680	0.686	0
85	3682	0.686	0
85	3712	0.692	0
85	3714	0.692	0
85	3744	0.698	0
85	3746	0.698	0
85	3776	0.704	0
85	3778	0.704	0
85	3808	0.71	0
85	3810	0.71	0
85	3840	0.716	0
85	3842	0.716	0
85	3872	0.722	0
85	3874	0.722	0
85	3904	0.728	0
85	3906	0.728	0
85	3936	0.734	0
85	3938	0.734	0
85	3968	0.74	0
85	3970	0.74	0
85	4000	0.746	0
85	4002	0.746	0
85	4032	0.752	0
85	4034	0.752	0
85	4064	0.758	0
85	4066	0.758	0
85	4096	0.764	0
85	4098	0.764	0
85	4128	0.77	0
85	4130	0.77	0
85	4160	0.776	0
85	4162	0.776	0
85	4192	0.782	0
85	4194	0.782	0
85	4224	0.788	0
85	4226	0.788	0
85	4256	0.794	0
85	4258	0.794	0
85	4288	0.8	0
85	4290	0.8	0
85	4320	0.806	0
85	4322	0.806	0
85	4352	0.812	0
85	4354	0.812	0
85	4384	0.818	0
85	4386	0.818	0
85	4416	0.824	0
85	4418	0.824	0
85	4448	0.83	0
85	4450	0.83	0
85	4480	0.836	0
85	4482	0.836	0
85	4512	0.842	0
85	4514	0.842	0
85	4544	0.848	0
85	4546	0.848	0
85	4576	0.854	0
85	4578	0.854	0
85	4608	0.86	0
85	4610	0.86	0
85	4640	0.866	0
85	4642	0.866	0
85	4672	0.872	0
85	4674	0.872	0
85	4704	0.878	0
85	4706	0.878	0
85	4736	0.884	0
85	4738	0.884	0
85	4768	0.89	0
85	4770	0.89	0
85	4800	0.896	0
85	4802	0.896	0
85	4832	0.902	0
85	4834	0.902	0
85	4864	0.908	0
85	4866	0.908	0
85	4896	0.914	0
85	4898	0.914	0
85	4928	0.92	0
85	4930	0.92	0
85	4960	0.926	0
85	4962	0.926	0
85	4992	0.932	0
85	4994	0.932	0
85	5024	0.938	0
85	5026	0.938	0
85	5056	0.944	0
85	5058	0.944	0
85	5088	0.95	0
85	5090	0.95	0
85	5120	0.956	0
85	5122	0.956	0
85	5152	0.962	0
85	5154	0.962	0
85	5184	0.968	0
85	5186	0.968	0
85	5216	0.974	0
85	5218	0.974	0
85	5248	0.98	0
85	5250	0.98	0
85	5280	0.986	0
85	5282	0.986	0
85	5312	0.992	0
85	5314	0.992	0
85	5344	0.998	0
85	5346	0.998	0
85	5376	1.004	0
85	5378	1.004	0
85	5408	1.01	0
85	5410	1.01	0
85	5440	1.016	0
85	5442	1.016	0
85	5472	1.022	0
85	5474	1.022	0
85	5504	1.028	0
85	5506	1.028	0
85	5536	1.034	0
85	5538	1.034	0
85	5568	1.04	0
85	5570	1.04	0
85	5600	1.046	0
85	5602	1.046	0
85	5632	1.052	0
85	5634	1.052	0
85	5664	1.058	0
85	5666	1.058	0
85	5696	1.064	0
85	5698	1.064	0
85	5728	1.07	0
85	5730	1.07	0
85	5760	1.076	0
85	5762	1.076	0
85	5792	1.082	0
85	5794	1.082	0
85	5824	1.088	0
85	5826	1.088	0
85	5856	1.094	0
85	5858	1.094	0
85	5888	1.1	0
85	5890	1.1	0
85	5920	1.106	0
85	5922	1.106	0
85	5952	1.112	0
85	5954	1.112	0
85	5984	1.118	0
85	5986	1.118	0
85	6016	1.124	0
85	6018	1.124	0
85	6048	1.13	0
85	6050	1.13	0
85	6080	1.136	0
85	6082	1.136	0
85	6112	1.142	0
85	6114	1.142	0
85	6144	1.148	0
85	6146	1.148	0
85	6176	1.154	0
85	6178	1.154	0
85	6208	1.16	0
85	6210	1.16	0
85	6240	1.166	0
85	6242	1.166	0
85	6272	1.172	0
85	6274	1.172	0
85	6304	1.178	0
85	6306	1.178	0
85	6336	1.184	0
85	6338	1.184	0
85	6368	1.19	0
85	6370	1.19	0
85	6400	1.196	0
85	6402	1.196	0
85	6432	1.202	0
85	6434	1.202	0
85	6464	1.208	0
85	6466	1.208	0
85	6496	1.214	0
85	6498	1.214	0
85	6528	1.22	0
85	6530	1.22	0
85	6560	1.226	0
85	6562	1.226	0
85	6592	1.232	0
85	6594	1.232	0
85	6624	1.238	0
85	6626	1.238	0
85	6656	1.244	0
85	6658	1.244	0
85	6688	1.25	0
85	6690	1.25	0
85	6720	1.256	0
85	6722	1.256	0
85	6752	1.262	0
85	6754	1.262	0
85	6784	1.268	0
85	6786	1.268	0
85	6816	1.274	0
85	6818	1.274	0
85	6848	1.28	0
85	6850	1.28	0
85	6880	1.286	0
85	6882	1.286	0
85	6912	1.292	0
85	6914	1.292	0
85	6944	1.298	0
85	6946	1.298	0
85	6976	1.304	0
85	6978	1.304	0
85	7008	1.31	0
85	7010	1.31	0
85	7040	1.316	0
85	7042	1.316	0
85	7072	1.322	0
85	7074	1.322	0
85	7104	1.328	0
85	7106	1.328	0
85	7136	1.334	0
85	7138	1.334	0
85	7168	1.34	0
85	7170	1.34	0
85	7200	1.346	0
85	7202	1.346	0
85	7232	1.352	0
85	7234	1.352	0
85	7264	1.358	0
85	7266	1.358	0
85	7296	1.364	0
85	7298	1.364	0
85	7328	1.37	0
85	7330	1.37	0
85	7360	1.376	0
85	7362	1.376	0
85	7392	1.382	0
85	7394	1.382	0
85	7424	1.388	0
85	7426	1.388	0
85	7456	1.394	0
85	7458	1.394	0
85	7488	1.4	0
85	7490	1.4	0
85	7520	1.406	0
85	7522	1.406	0
85	7552	1.412	0
85	7554	1.412	0
85	7584	1.418	0
85	7586	1.418	0
85	7616	1.424	0
85	7618	1.424	0
85	7648	1.43	0
85	7650	1.43	0
85	7680	1.436	0
85	7682	1.436	0
85	7712	1.442	0
85	7714	1.442	0
85	7744	1.448	0
85	7746	1.448	0
85	7776	1.454	0
85	7778	1.454	0
85	7808	1.46	0
85	7810	1.46	0
85	7840	1.466	0
85	7842	1.466	0
85	7872	1.472	0
85	7874	1.472	0
85	7904	1.478	0
85	7906	1.478	0
85	7936	1.484	0
85	7938	1.484	0
85	7968	1.49	0
85	7970	1.49	0
85	8000	1.496	0
85	8002	1.496	0
85	8032	1.502	0
85	8034	1.502	0
85	8064	1.508	0
85	8066	1.508	0
85	8096	1.514	0
85	8098	1.514	0
85	8128	1.52	0
85	8130	1.52	0
85	8160	1.526	0
85	8162	1.526	0
85	8192	1.532	0
85	8194	1.532	0
85	8224	1.538	0
85	8226	1.538	0
85	8256	1.544	0
85	8258	1.544	0
85	8288	1.55	0
85	8290	1.55	0
85	8320	1.556	0
85	8322	1.556	0
85	8352	1.562	0
85	8354	1.562	0
85	8384	1.568	0
85	8386	1.568	0
85	8416	1.574	0
85	8418	1.574	0
85	8448	1.58	0
85	8450	1.58	0
85	8480	1.586	0
85	8482	1.586	0
85	8512	1.592	0
85	8514	1.592	0
85	8544	1.598	0
85	8546	1.598	0
85	8576	1.604	0
85	8578	1.604	0
85	8608	1.61	0
85	8610	1.61	0
85	8640	1.616	0
85	8642	1.616	0
85	8672	1.622	0
85	8674	1.622	0
85	8704	1.628	0
85	8706	1.628	0
85	8736	1.634	0
85	8738	1.634	0
85	8768	1.64	0
85	8770	1.64	0
85	8800	1.646	0
85	8802	1.646	0
85	8832	1.652	0
85	8834	1.652	0
85	8864	1.658	0
85	8866	1.658	0
85	8896	1.664	0
85	8898	1.664	0
85	8928	1.67	0
85	8930	1.67	0
85	8960	1.676	0
85	8962	1.676	0
85	8992	1.682	0
85	8994	1.682	0
85	9024	1.688	0
85	9026	1.688	0
85	9056	1.694	0
85	9058	1.694	0
85	9088	1.7	0
85	9090	1.7	0
85	9120	1.706	0
85	9122	1.706	0
85	9152	1.712	0
85	9154	1.712	0
85	9184	1.718	0
85	9186	1.718	0
85	9216	1.724	0
85	9218	1.724	0
85	9248	1.73	0
85	9250	1.73	0
85	9280	1.736	0
85	9282	1.736	0
85	9312	1.742	0
85	9314	1.742	0
85	9344	1.748	0
85	9346	1.748	0
85	9376	1.754	0
85	9378	1.754	0
85	9408	1.76	0
85	9410	1.76	0
85	9440	1.766	0
85	9442	1.766	0
85	9472	1.772	0
85	9474	1.772	0
85	9504	1.778	0
85	9506	1.778	0
85	9536	1.784	0
85	9538	1.784	0
85	9568	1.79	0
85	9570	1.79	0
85	9600	1.796	0
85	9602	1.796	0
85	9632	1.802	0
85	9634	1.802	0
85	9664	1.808	0
85	9666	1.808	0
85	9696	1.814	0
85	9698	1.814	0
85	9728	1.82	0
85	9730	1.82	0
85	9760	1.826	0
85	9762	1.826	0
85	9792	1.832	0
85	9794	1.832	0
85	9824	1.838	0
85	9826	1.838	0
85	9856	1.844	0
85	9858	1.844	0
85	9888	1.85	0
85	9890	1.85	0
85	9920	1.856	0
85	9922	1.856	0
85	9952	1.862	0
85	9954	1.862	0
85	9984	1.868	0
85	9986	1.868	0
85	10016	1.874	0
85	10018	1.874	0
85	10048	1.88	0
85	10050	1.88	0
85	10080	1.886	0
85	10082	1.886	0
85	10112	1.892	0
85	10114	1.892	0
85	10144	1.898	0
85	10146	1.898	0
85	10176	1.904	0
85	10178	1.904	0
85	10208	1.91	0
85	10210	1.91	0
85	10240	1.916	0
85	10242	1.916	0
85	10272	1.922	0
85	10274	1.922	0
85	10304	1.928	0
85	10306	1.928	0
85	10336	1.934	0
85	10338	1.934	0
85	10368	1.94	0
85	10370	1.94	0
85	10400	1.946	0
85	10402	1.946	0
85	10432	1.952	0
85	10434	1.952	0
85	10464	1.958	0
85	10466	1.958	0
85	10496	1.964	0
85	10498	1.964	0
85	10528	1.97	0
85	10530	1.97	0
85	10560	1.976	0
85	10562	1.976	0
85	10592	1.982	0
85	10594	1.982	0
85	10624	1.988	0
85	10626	1.988	0
85	10656	1.994	0
85	10658	1.994	0
85	10688	2	0
85	10690	2	0
85	10720	2.006	0
85	10722	2.006	0
85	10752	2.012	0
85	10754	2.012	0
85	10784	2.018	0
85	10786	2.018	0
85	10816	2.024	0
85	10818	2.024	0
85	10848	2.03	0
85	10850	2.03	0
85	10880	2.036	0
85	10882	2.036	0
85	10912	2.042	0
85	10914	2.042	0
85	10944	2.048	0
85	10946	2.048	0
85	10976	2.054	0
85	10978	2.054	0
85	11008	2.06	0
85	11010	2.06	0
85	11040	2.066	0
85	11042	2.066	0
85	11072	2.072	0
85	11074	2.072	0
85	11104	2.078	0
85	11106	2.078	0
85	11136	2.084	0
85	11138	2.084	0
85	11168	2.09	0
85	11170	2.09	0
85	11200	2.096	0
85	11202	2.096	0
85	11232	2.102	0
85	11234	2.102	0
85	11264	2.108	0
85	11266	2.108	0
85	11296	2.114	0
85	11298	2.114	0
85	11328	2.12	0
85	11330	2.12	0
85	11360	2.126	0
85	11362	2.126	0
85	11392	2.132	0
85	11394	2.132	0
85	11424	2.138	0
85	11426	2.138	0
85	11456	2.144	0
85	11458	2.144	0
85	11488	2.15	0
85	11490	2.15	0
85	11520	2.156	0
85	11522	2.156	0
85	11552	2.162	0
85	11554	2.162	0
85	11584	2.168	0
85	11586	2.168	0
85	11616	2.174	0
85	11618	2.174	0
85	11648	2.18	0
85	11650	2.18	0
85	11680	2.186	0
85	11682	2.186	0
85	11712	2.192	0
85	11714	2.192	0
85	11744	2.198	0
85	11746	2.198	0
85	11776	2.204	0
85	11778	2.204	0
85	11808	2.21	0
85	11810	2.21	0
85	11840	2.216	0
85	11842	2.216	0
85	11872	2.222	0
85	11874	2.222	0
85	11904	2.228	0
85	11906	2.228	0
85	11936	2.234	0
85	11938	2.234	0
85	11968	2.24	0
85	11970	2.24	0
85	12000	2.246	0
85	12002	2.246	0
85	12032	2.252	0
85	12034	2.252	0
85	12064	2.258	0
85	12066	2.258	0
85	12096	2.264	0
85	12098	2.264	0
85	12128	2.27	0
85	12130	2.27	0
85	12160	2.276	0
85	12162	2.276	0
85	12192	2.282	0
85	12194	2.282	0
85	12224	2.288	0
85	12226	2.288	0
85	12256	2.294	0
85	12258	2.294	0
85	12288	2.3	0
85	12290	2.3	0
85	12320	2.306	0
85	12322	2.306	0
85	12352	2.312	0
85	12354	2.312	0
85	12384	2.318	0
85	12386	2.318	0
85	12416	2.324	0
85	12418	2.324	0
85	12448	2.33	0
85	12450	2.33	0
85	12480	2.336	0
85	12482	2.336	0
85	12512	2.342	0
85	12514	2.342	0
85	12544	2.348	0
85	12546	2.348	0
85	12576	2.354	0
85	12578	2.354	0
85	12608	2.36	0
85	12610	2.36	0
85	12640	2.366	0
85	12642	2.366	0
85	12672	2.372	0
85	12674	2.372	0
85	12704	2.378	0
85	12706	2.378	0
85	12736	2.384	0
85	12738	2.384	0
85	12768	2.39	0
85	12770	2.39	0
85	12800	2.396	0
85	12802	2.396	0
85	12832	2.402	0
85	12834	2.402	0
85	12864	2.408	0
85	12866	2.408	0
85	12896	2.414	0
85	12898	2.414	0
85	12928	2.42	0
85	12930	2.42	0
85	12960	2.426	0
85	12962	2.426	0
85	12992	2.432	0
85	12994	2.432	0
85	13024	2.438	0
85	13026	2.438	0
85	13056	2.444	0
85	13058	2.444	0
85	13088	2.45	0
85	13090	2.45	0
85	13120	2.456	0
85	13122	2.456	0
85	13152	2.462	0
85	13154	2.462	0
85	13184	2.468	0
85	13186	2.468	0
85	13216	2.474	0
85	13218	2.474	0
85	13248	2.48	0
85	13250	2.48	0
85	13280	2.486	0
85	13282	2.486	0
85	13312	2.492	0
85	13314	2.492	0
85	13344	2.498	0
85	13346	2.498	0
85	13376	2.504	0
85	13378	2.504	0
85	13408	2.51	0
85	13410	2.51	0
85	13440	2.516	0
85	13442	2.516	0
85	13472	2.522	0
85	13474	2.522	0
85	13504	2.528	0
85	13506	2.528	0
85	13536	2.534	0
85	13538	2.534	0
85	13568	2.54	0
85	13570	2.54	0
85	13600	2.546	0
85	13602	2.546	0
85	13632	2.552	0
85	13634	2.552	0
85	13664	2.558	0
85	13666	2.558	0
85	13696	2.564	0
85	13698	2.564	0
85	13728	2.57	0
85	13730	2.57	0
85	13760	2.576	0
85	13762	2.576	0
85	13792	2.582	0
85	13794	2.582	0
85	13824	2.588	0
85	13826	2.588	0
85	13856	2.594	0
85	13858	2.594	0
85	13888	2.6	0
85	13890	2.6	0
85	13920	2.606	0
85	13922	2.606	0
85	13952	2.612	0
85	13954	2.612	0
85	13984	2.618	0
85	13986	2.618	0
85	14016	2.624	0
85	14018	2.624	0
85	14048	2.63	0
85	14050	2.63	0
85	14080	2.636	0
85	14082	2.636	0
85	14112	2.642	0
85	14114	2.642	0
85	14144	2.648	0
85	14146	2.648	0
85	14176	2.654	0
85	14178	2.654	0
85	14208	2.66	0
85	14210	2.66	0
85	14240	2.666	0
85	14242	2.666	0
85	14272	2.672	0
85	14274	2.672	0
85	14304	2.678	0
85	14306	2.678	0
85	14336	2.684	0
85	14338	2.684	0
85	14368	2.69	0
85	14370	2.69	0
85	14400	2.696	0
85	14402	2.696	0
85	14432	2.702	0
85	14434	2.702	0
85	14464	2.708	0
85	14466	2.708	0
85	14496	2.714	0
85	14498	2.714	0
85	14528	2.72	0
85	14530	2.72	0
85	14560	2.726	0
85	14562	2.726	0
85	14592	2.732	0
85	14594	2.732	0
85	14624	2.738	0
85	14626	2.738	0
85	14656	2.744	0
85	14658	2.744	0
85	14688	2.75	0
85	14690	2.75	0
85	14720	2.756	0
85	14722	2.756	0
85	14752	2.762	0
85	14754	2.762	0
85	14784	2.768	0
85	14786	2.768	0
85	14816	2.774	0
85	14818	2.774	0
85	14848	2.78	0
85	14850	2.78	0
85	14880	2.786	0
85	14882	2.786	0
85	14912	2.792	0
85	14914	2.792	0
85	14944	2.798	0
85	14946	2.798	0
85	14976	2.804	0
85	14978	2.804	0
85	15008	2.81	0
85	15010	2.81	0
85	15040	2.816	0
85	15042	2.816	0
85	15072	2.822	0
85	15074	2.822	0
85	15104	2.828	0
85	15106	2.828	0
85	15136	2.834	0
85	15138	2.834	0
85	15168	2.84	0
85	15170	2.84	0
85	15200	2.846	0
85	15202	2.846	0
85	15232	2.852	0
85	15234	2.852	0
85	15264	2.858	0
85	15266	2.858	0
85	15296	2.864	0
85	15298	2.864	0
85	15328	2.87	0
85	15330	2.87	0
85	15360	2.876	0
85	15362	2.876	0
85	15392	2.882	0
85	15394	2.882	0
85	15424	2.888	0
85	15426	2.888	0
85	15456	2.894	0
85	15458	2.894	0
85	15488	2.9	0
85	15490	2.9	0
85	15520	2.906	0
85	15522	2.906	0
85	15552	2.912	0
85	15554	2.912	0
85	15584	2.918	0
85	15586	2.918	0
85	15616	2.924	0
85	15618	2.924	0
85	15648	2.93	0
85	15650	2.93	0
85	15680	2.936	0
85	15682	2.936	0
85	15712	2.942	0
85	15714	2.942	0
85	15744	2.948	0
85	15746	2.948	0
85	15776	2.954	0
85	15778	2.954	0
85	15808	2.96	0
85	15810	2.96	0
85	15840	2.966	0
85	15842	2.966	0
85	15872	2.972	0
85	15874	2.972	0
85	15904	2.978	0
85	15906	2.978	0
85	15936	2.984	0
85	15938	2.984	0
85	15968	2.99	0
85	15970	2.99	0
85	16000	2.996	0
85	16002	2.996	0
85	16032	3.002	0
85	16034	3.002	0
85	16064	3.008	0
85	16066	3.008	0
85	16096	3.014	0
85	16098	3.014	0
85	16128	3.02	0
85	16130	3.02	0
85	16160	3.026	0
85	16162	3.026	0
85	16192	3.032	0
85	16194	3.032	0
85	16224	3.038	0
85	16226	3.038	0
85	16256	3.044	0
85	16258	3.044	0
85	16288	3.05	0
85	16290	3.05	0
85	16320	3.056	0
85	16322	3.056	0
85	16352	3.062	0
85	16354	3.062	0
85	16384	3.068	0
85	16386	3.068	0
85	16416	3.074	0
85	16418	3.074	0
85	16448	3.08	0
85	16450	3.08	0
85	16480	3.086	0
85	16482	3.086	0
85	16512	3.092	0
85	16514	3.092	0
85	16544	3.098	0
85	16546	3.098	0
85	16576	3.104	0
85	16578	3.104	0
85	16608	3.11	0
85	16610	3.11	0
85	16640	3.116	0
85	16642	3.116	0
85	16672	3.122	0
85	16674	3.122	0
85	16704	3.128	0
85	16706	3.128	0
85	16736	3.134	0
85	16738	3.134	0
85	16768	3.14	0
85	16770	3.14	0
85	16800	3.146	0
85	16802	3.146	0
85	16832	3.152	0
85	16834	3.152	0
85	16864	3.158	0
85	16866	3.158	0
85	16896	3.164	0
85	16898	3.164	0
85	16928	3.17	0
85	16930	3.17	0
85	16960	3.176	0
85	16962	3.176	0
85	16992	3.182	0
85	16994	3.182	0
85	17024	3.188	0
85	17026	3.188	0
85	17056	3.194	0
85	17058	3.194	0
85	17088	3.2	0
85	17090	3.2	0
85	17120	3.206	0
85	17122	3.206	0
85	17152	3.212	0
85	17154	3.212	0
85	17184	3.218	0
85	17186	3.218	0
85	17216	3.224	0
85	17218	3.224	0
85	17248	3.23	0
85	17250	3.23	0
85	17280	3.236	0
85	17282	3.236	0
85	17312	3.242	0
85	17314	3.242	0
85	17344	3.248	0
85	17346	3.248	0
85	17376	3.254	0
85	17378	3.254	0
85	17408	3.26	0
85	17410	3.26	0
85	17440	3.266	0
85	17442	3.266	0
85	17472	3.272	0
85	17474	3.272	0
85	17504	3.278	0
85	17506	3.278	0
85	17536	3.284	0
85	17538	3.284	0
85	17568	3.29	0
85	17570	3.29	0
85	17600	3.296	0
85	17602	3.296	0
85	17632	3.302	0
85	17634	3.302	0
85	17664	3.308	0
85	17666	3.308	0
85	17696	3.314	0
85	17698	3.314	0
85	17728	3.32	0
85	17730	3.32	0
85	17760	3.326	0
85	17762	3.326	0
85	17792	3.332	0
85	17794	3.332	0
85	17824	3.338	0
85	17826	3.338	0
85	17856	3.344	0
85	17858	3.344	0
85	17888	3.35	0
85	17890	3.35	0
85	17920	3.356	0
85	17922	3.356	0
85	17952	3.362	0
85	17954	3.362	0
85	17984	3.368	0
85	17986	3.368	0
85	18016	3.374	0
85	18018	3.374	0
85	18048	3.38	0
85	18050	3.38	0
85	18080	3.386	0
85	18082	3.386	0
85	18112	3.392	0
85	18114	3.392	0
85	18144	3.398	0
85	18146	3.398	0
85	18176	3.404	0
85	18178	3.404	0
85	18208	3.41	0
85	18210	3.41	0
85	18240	3.416	0
85	18242	3.416	0
85	18272	3.422	0
85	18274	3.422	0
85	18304	3.428	0
85	18306	3.428	0
85	18336	3.434	0
85	18338	3.434	0
85	18368	3.44	0
85	18370	3.44	0
85	18400	3.446	0
85	18402	3.446	0
85	18432	3.452	0
85	18434	3.452	0
85	18464	3.458	0
85	18466	3.458	0
85	18496	3.464	0
85	18498	3.464	0
85	18528	3.47	0
85	18530	3.47	0
85	18560	3.476	0
85	18562	3.476	0
85	18592	3.482	0
85	18594	3.482	0
85	18624	3.488	0
85	18626	3.488	0
85	18656	3.494	0
85	18658	3.494	0
85	18688	3.5	0
85	18690	3.5	0
85	18720	3.506	0
85	18722	3.506	0
85	18752	3.512	0
85	18754	3.512	0
85	18784	3.518	0
85	18786	3.518	0
85	18816	3.524	0
85	18818	3.524	0
85	18848	3.53	0
85	18850	3.53	0
85	18880	3.536	0
85	18882	3.536	0
85	18912	3.542	0
85	18914	3.542	0
85	18944	3.548	0
85	18946	3.548	0
85	18976	3.554	0
85	18978	3.554	0
85	19008	3.56	0
85	19010	3.56	0
85	19040	3.566	0
85	19042	3.566	0
85	19072	3.572	0
85	19074	3.572	0
85	19104	3.578	0
85	19106	3.578	0
85	19136	3.584	0
85	19138	3.584	0
85	19168	3.59	0
85	19170	3.59	0
85	19200	3.596	0
85	19202	3.596	0
85	19232	3.602	0
85	19234	3.602	0
85	19264	3.608	0
85	19266	3.608	0
85	19296	3.614	0
85	19298	3.614	0
85	19328	3.62	0
85	19330	3.62	0
85	19360	3.626	0
85	19362	3.626	0
85	19392	3.632	0
85	19394	3.632	0
85	19424	3.638	0
85	19426	3.638	0
85	19456	3.644	0
85	19458	3.644	0
85	19488	3.65	0
85	19490	3.65	0
85	19520	3.656	0
85	19522	3.656	0
85	19552	3.662	0
85	19554	3.662	0
85	19584	3.668	0
85	19586	3.668	0
85	19616	3.674	0
85	19618	3.674	0
85	19648	3.68	0
85	19650	3.68	0
85	19680	3.686	0
85	19682	3.686	0
85	19712	3.692	0
85	19714	3.692	0
85	19744	3.698	0
85	19746	3.698	0
85	19776	3.704	0
85	19778	3.704	0
85	19808	3.71	0
85	19810	3.71	0
85	19840	3.716	0
85	19842	3.716	0
85	19872	3.722	0
85	19874	3.722	0
85	19904	3.728	0
85	19906	3.728	0
85	19936	3.734	0
85	19938	3.734	0
85	19968	3.74	0
85	19970	3.74	0
85	20000	3.746	0
85	20002	3.746	0
85	20032	3.752	0
85	20034	3.752	0
85	20064	3.758	0
85	20066	3.758	0
85	20096	3.764	0
85	20098	3.764	0
85	20128	3.77	0
85	20130	3.77	0
85	20160	3.776	0
85	20162	3.776	0
85	20192	3.782	0
85	20194	3.782	0
85	20224	3.788	0
85	20226	3.788	0
85	20256	3.794	0
85	20258	3.794	0
85	20288	3.8	0
85	20290	3.8	0
85	20320	3.806	0
85	20322	3.806	0
85	20352	3.812	0
85	20354	3.812	0
85	20384	3.818	0
85	20386	3.818	0
85	20416	3.824	0
85	20418	3.824	0
85	20448	3.83	0
85	20450	3.83	0
85	20480	3.836	0
85	20482	3.836	0
85	20512	3.842	0
85	20514	3.842	0
85	20544	3.848	0
85	20546	3.848	0
85	20576	3.854	0
85	20578	3.854	0
85	20608	3.86	0
85	20610	3.86	0
85	20640	3.866	0
85	20642	3.866	0
85	20672	3.872	0
85	20674	3.872	0
85	20704	3.878	0
85	20706	3.878	0
85	20736	3.884	0
85	20738	3.884	0
85	20768	3.89	0
85	20770	3.89	0
85	20800	3.896	0
85	20802	3.896	0
85	20832	3.902	0
85	20834	3.902	0
85	20864	3.908	0
85	20866	3.908	0
85	20896	3.914	0
85	20898	3.914	0
85	20928	3.92	0
85	20930	3.92	0
85	20960	3.926	0
85	20962	3.926	0
85	20992	3.932	0
85	20994	3.932	0
85	21024	3.938	0
85	21026	3.938	0
85	21056	3.944	0
85	21058	3.944	0
85	21088	3.95	0
85	21090	3.95	0
85	21120	3.956	0
85	21122	3.956	0
85	21152	3.962	0
85	21154	3.962	0
85	21184	3.968	0
85	21186	3.968	0
85	21216	3.974	0
85	21218	3.974	0
85	21248	3.98	0
85	21250	3.98	0
85	21280	3.986	0
85	21282	3.986	0
85	21312	3.992	0
85	21314	3.992	0
85	21344	3.998	0
85	21346	3.998	0
85	21376	4.004	0
85	21378	4.004	0
85	21408	4.01	0
85	21410	4.01	0
85	21440	4.016	0
85	21442	4.016	0
85	21472	4.022	0
85	21474	4.022	0
85	21504	4.028	0
85	21506	4.028	0
85	21536	4.034	0
85	21538	4.034	0
85	21568	4.04	0
85	21570	4.04	0
85	21600	4.046	0
85	21602	4.046	0
85	21632	4.052	0
85	21634	4.052	0
85	21664	4.058	0
85	21666	4.058	0
85	21696	4.064	0
85	21698	4.064	0
85	21728	4.07	0
85	21730	4.07	0
85	21760	4.076	0
85	21762	4.076	0
85	21792	4.082	0
85	21794	4.082	0
85	21824	4.088	0
85	21826	4.088	0
85	21856	4.094	0
85	21858	4.094	0
85	21888	4.1	0
85	21890	4.1	0
85	21920	4.106	0
85	21922	4.106	0
85	21952	4.112	0
85	21954	4.112	0
85	21984	4.118	0
85	21986	4.118	0
85	22016	4.124	0
85	22018	4.124	0
85	22048	4.13	0
85	22050	4.13	0
85	22080	4.136	0
85	22082	4.136	0
85	22112	4.142	0
85	22114	4.142	0
85	22144	4.148	0
85	22146	4.148	0
85	22176	4.154	0
85	22178	4.154	0
85	22208	4.16	0
85	22210	4.16	0
85	22240	4.166	0
85	22242	4.166	0
85	22272	4.172	0
85	22274	4.172	0
85	22304	4.178	0
85	22306	4.178	0
85	22336	4.184	0
85	22338	4.184	0
85	22368	4.19	0
85	22370	4.19	0
85	22400	4.196	0
85	22402	4.196	0
85	22432	4.202	0
85	22434	4.202	0
85	22464	4.208	0
85	22466	4.208	0
85	22496	4.214	0
85	22498	4.214	0
85	22528	4.22	0
85	22530	4.22	0
85	22560	4.226	0
85	22562	4.226	0
85	22592	4.232	0
85	22594	4.232	0
85	22624	4.238	0
85	22626	4.238	0
85	22656	4.244	0
85	22658	4.244	0
85	22688	4.25	0
85	22690	4.25	0
85	22720	4.256	0
85	22722	4.256	0
85	22752	4.262	0
85	22754	4.262	0
85	22784	4.268	0
85	22786	4.268	0
85	22816	4.274	0
85	22818	4.274	0
85	22848	4.28	0
85	22850	4.28	0
85	22880	4.286	0
85	22882	4.286	0
85	22912	4.292	0
85	22914	4.292	0
85	22944	4.298	0
85	22946	4.298	0
85	22976	4.304	0
85	22978	4.304	0
85	23008	4.31	0
85	23010	4.31	0
85	23040	4.316	0
85	23042	4.316	0
85	23072	4.322	0
85	23074	4.322	0
85	23104	4.328	0
85	23106	4.328	0
85	23136	4.334	0
85	23138	4.334	0
85	23168	4.34	0
85	23170	4.34	0
85	23200	4.346	0
85	23202	4.346	0
85	23232	4.352	0
85	23234	4.352	0
85	23264	4.358	0
85	23266	4.358	0
85	23296	4.364	0
85	23298	4.364	0
85	23328	4.37	0
85	23330	4.37	0
85	23360	4.376	0
85	23362	4.376	0
85	23392	4.382	0
85	23394	4.382	0
85	23424	4.388	0
85	23426	4.388	0
85	23456	4.394	0
85	23458	4.394	0
85	23488	4.4	0
85	23490	4.4	0
85	23520	4.406	0
85	23522	4.406	0
85	23552	4.412	0
85	23554	4.412	0
85	23584	4.418	0
85	23586	4.418	0
85	23616	4.424	0
85	23618	4.424	0
85	23648	4.43	0
85	23650	4.43	0
85	23680	4.436	0
85	23682	4.436	0
85	23712	4.442	0
85	23714	4.442	0
85	23744	4.448	0
85	23746	4.448	0
85	23776	4.454	0
85	23778	4.454	0
85	23808	4.46	0
85	23810	4.46	0
85	23840	4.466	0
85	23842	4.466	0
85	23872	4.472	0
85	23874	4.472	0
85	23904	4.478	0
85	23906	4.478	0
85	23936	4.484	0
85	23938	4.484	0
85	23968	4.49	0
85	23970	4.49	0
85	24000	4.496	0
85	24002	4.496	0
85	24032	4.502	0
85	24034	4.502	0
85	24064	4.508	0
85	24066	4.508	0
85	24096	4.514	0
85	24098	4.514	0
85	24128	4.52	0
85	24130	4.52	0
85	24160	4.526	0
85	24162	4.526	0
85	24192	4.532	0
85	24194	4.532	0
85	24224	4.538	0
85	24226	4.538	0
85	24256	4.544	0
85	24258	4.544	0
85	24288	4.55	0
85	24290	4.55	0
85	24320	4.556	0
85	24322	4.556	0
85	24352	4.562	0
85	24354	4.562	0
85	24384	4.568	0
85	24386	4.568	0
85	24416	4.574	0
85	24418	4.574	0
85	24448	4.58	0
85	24450	4.58	0
85	24480	4.586	0
85	24482	4.586	0
85	24512	4.592	0
85	24514	4.592	0
85	24544	4.598	0
85	24546	4.598	0
85	24576	4.604	0
85	24578	4.604	0
85	24608	4.61	0
85	24610	4.61	0
85	24640	4.616	0
85	24642	4.616	0
85	24672	4.622	0
85	24674	4.622	0
85	24704	4.628	0
85	24706	4.628	0
85	24736	4.634	0
85	24738	4.634	0
85	24768	4.64	0
85	24770	4.64	0
85	24800	4.646	0
85	24802	4.646	0
85	24832	4.652	0
85	24834	4.652	0
85	24864	4.658	0
85	24866	4.658	0
85	24896	4.664	0
85	24898	4.664	0
85	24928	4.67	0
85	24930	4.67	0
85	24960	4.676	0
85	24962	4.676	0
85	24992	4.682	0
85	24994	4.682	0
85	25024	4.688	0
85	25026	4.688	0
85	25056	4.694	0
85	25058	4.694	0
85	25088	4.7	0
85	25090	4.7	0
85	25120	4.706	0
85	25122	4.706	0
85	25152	4.712	0
85	25154	4.712	0
85	25184	4.718	0
85	25186	4.718	0
85	25216	4.724	0
85	25218	4.724	0
85	25248	4.73	0
85	25250	4.73	0
85	25280	4.736	0
85	25282	4.736	0
85	25312	4.742	0
85	25314	4.742	0
85	25344	4.748	0
85	25346	4.748	0
85	25376	4.754	0
85	25378	4.754	0
85	25408	4.76	0
85	25410	4.76	0
85	25440	4.766	0
85	25442	4.766	0
85	25472	4.772	0
85	25474	4.772	0
85	25504	4.778	0
85	25506	4.778	0
85	25536	4.784	0
85	25538	4.784	0
85	25568	4.79	0
85	25570	4.79	0
85	25600	4.796	0
85	25602	4.796	0
85	25632	4.802	0
85	25634	4.802	0
85	25664	4.808	0
85	25666	4.808	0
85	25696	4.814	0
85	25698	4.814	0
85	25728	4.82	0
85	25730	4.82	0
85	25760	4.826	0
85	25762	4.826	0
85	25792	4.832	0
85	25794	4.832	0
85	25824	4.838	0
85	25826	4.838	0
85	25856	4.844	0
85	25858	4.844	0
85	25888	4.85	0
85	25890	4.85	0
85	25920	4.856	0
85	25922	4.856	0
85	25952	4.862	0
85	25954	4.862	0
85	25984	4.868	0
85	25986	4.868	0
85	26016	4.874	0
85	26018	4.874	0
85	26048	4.88	0
85	26050	4.88	0
85	26080	4.886	0
85	26082	4.886	0
85	26112	4.892	0
85	26114	4.892	0
85	26144	4.898	0
85	26146	4.898	0
85	26176	4.904	0
85	26178	4.904	0
85	26208	4.91	0
85	26210	4.91	0
85	26240	4.916	0
85	26242	4.916	0
85	26272	4.922	0
85	26274	4.922	0
85	26304	4.928	0
85	26306	4.928	0
85	26336	4.934	0
85	26338	4.934	0
85	26368	4.94	0
85	26370	4.94	0
85	26400	4.946	0
85	26402	4.946	0
85	26432	4.952	0
85	26434	4.952	0
85	26464	4.958	0
85	26466	4.958	0
85	26496	4.964	0
85	26498	4.964	0
85	26528	4.97	0
85	26530	4.97	0
85	26560	4.976	0
85	26562	4.976	0
85	26592	4.982	0
85	26594	4.982	0
85	26624	4.988	0
85	26626	4.988	0
85	26656	4.994	0
85	26658	4.994	0
85	26688	5	0
85	26690	5	0
95	0	0	0
96	0	0	0
