                                                                
version 2
run D2DMulticast-1to2-0-20190725-16:04:33-12963
attr configname D2DMulticast-1to2
attr datetime 20190725-16:04:33
attr experiment D2DMulticast-1to2
attr inifile omnetpp.ini
attr iterationvars ""
attr iterationvars2 $repetition=0
attr measurement ""
attr network lte.simulations.networks.SingleCell_D2DMulticast
attr processid 12963
attr repetition 0
attr replication #0
attr resultdir results
attr runnumber 0
attr seedset 0
param **.amcMode "\"D2D\""
param **.channelControl.alpha 1.0
param **.channelControl.carrierFrequency 2100e+6Hz
param **.channelControl.pMax 10W
param **.d2dCqi 7
param **.deployer.numRbDl 50
param **.deployer.numRbUl 50
param **.fbDelay 1
param **.feedbackComputation "xmldoc(\"config_channel.xml\")"
param **.mobility.constraintAreaMaxZ 0m
param **.mobility.constraintAreaMinZ 0m
param **.nic.phy.channelModel "xmldoc(\"config_channel.xml\")"
param **.numBands 50
param **.rbAllocationType "\"localized\""
param **.routingRecorder.enabled false
param **.usePreconfiguredTxParams true
param *.eNodeB.d2dCapable true
param *.eNodeB.mobility.initFromDisplayString false
param *.eNodeB.mobility.initialX 300m
param *.eNodeB.mobility.initialY 300m
param *.numUeCell 0
param *.numUeD2D 3
param *.ue*[*].macCellId 1
param *.ue*[*].masterId 1
param *.ue*[*].mobility.initFromDisplayString false
param *.ueD2D[*].d2dCapable true
param *.ueD2D[*].numUdpApps 1
param *.ueD2D[0].mobility.initialX 290m
param *.ueD2D[0].mobility.initialY 350m
param *.ueD2D[0].udpApp[*].destAddress "\"224.0.0.10\""
param *.ueD2D[0].udpApp[*].destPort 1000
param *.ueD2D[0].udpApp[*].localPort 3088+ancestorIndex(0)
param *.ueD2D[0].udpApp[*].startTime uniform(0s,0.02s)
param *.ueD2D[0].udpApp[*].typename "\"AlertSender\""
param *.ueD2D[1..2].udpApp[*].localPort 1000
param *.ueD2D[1..2].udpApp[*].typename "\"AlertReceiver\""
param *.ueD2D[1].mobility.initialX 310m
param *.ueD2D[1].mobility.initialY 350m
param *.ueD2D[2].mobility.initialX 330m
param *.ueD2D[2].mobility.initialY 350m

vector 8  SingleCell_D2DMulticast.server.ppp[0].queue  queueLength:vector  ETV
attr interpolationmode  sample-hold
attr title  "queue length, vector"
vector 9  SingleCell_D2DMulticast.server.ppp[0].ppp  txState:vector  ETV
attr interpolationmode  sample-hold
attr title  "tx state, vector"
vector 24  SingleCell_D2DMulticast.router.ppp[0].queue  queueLength:vector  ETV
attr interpolationmode  sample-hold
attr title  "queue length, vector"
vector 25  SingleCell_D2DMulticast.router.ppp[0].ppp  txState:vector  ETV
attr interpolationmode  sample-hold
attr title  "tx state, vector"
vector 35  SingleCell_D2DMulticast.router.ppp[1].queue  queueLength:vector  ETV
attr interpolationmode  sample-hold
attr title  "queue length, vector"
vector 36  SingleCell_D2DMulticast.router.ppp[1].ppp  txState:vector  ETV
attr interpolationmode  sample-hold
attr title  "tx state, vector"
vector 56  SingleCell_D2DMulticast.pgw.ppp[0].queue  queueLength:vector  ETV
attr interpolationmode  sample-hold
attr title  "queue length, vector"
vector 57  SingleCell_D2DMulticast.pgw.ppp[0].ppp  txState:vector  ETV
attr interpolationmode  sample-hold
attr title  "tx state, vector"
vector 67  SingleCell_D2DMulticast.pgw.pppInterface.queue  queueLength:vector  ETV
attr interpolationmode  sample-hold
attr title  "queue length, vector"
vector 68  SingleCell_D2DMulticast.pgw.pppInterface.ppp  txState:vector  ETV
attr interpolationmode  sample-hold
attr title  "tx state, vector"
vector 96  SingleCell_D2DMulticast.eNodeB.pppIf.queue  queueLength:vector  ETV
attr interpolationmode  sample-hold
attr title  "queue length, vector"
vector 97  SingleCell_D2DMulticast.eNodeB.pppIf.ppp  txState:vector  ETV
attr interpolationmode  sample-hold
attr title  "tx state, vector"
vector 125  SingleCell_D2DMulticast.ueD2D[0].nic.phy  servingCell:vector  ETV
attr source  servingCell
attr title  "ID of the serving eNodeB for the UE, vector"
attr unit  ""
vector 148  SingleCell_D2DMulticast.ueD2D[1].nic.phy  servingCell:vector  ETV
attr source  servingCell
attr tit