version 2
run CAINsimple-0-20200804-11:47:19-14888
attr configname CAINsimple
attr datetime 20200804-11:47:19
attr experiment CAINsimple
attr inifile omnetpp.ini
attr iterationvars "$nEnb=1, $numUe=20, $pwr=-60, $mob=\"./movements/RWP-0.0.movements\""
attr iterationvars2 "$nEnb=1, $numUe=20, $pwr=-60, $mob=\"./movements/RWP-0.0.movements\", $repetition=0"
attr measurement "$nEnb=1, $numUe=20, $pwr=-60, $mob=\"./movements/RWP-0.0.movements\""
attr mob "\"./movements/RWP-0.0.movements\""
attr nEnb 1
attr network lte.simulations.networks.CAINsimple
attr numUe 20
attr processid 14888
attr pwr -60
attr repetition 0
attr replication #0
attr resultdir results
attr runnumber 0
attr seedset 0
param **.**.amcMode "\"AUTO\""
param **.amcMode "\"D2D\""
param **.channelControl.alpha 1.0
param **.channelControl.carrierFrequency 2100e+6Hz
param **.channelControl.pMax 10W
param **.d2dCqi 7
param **.deployer.numRbDl 50
param **.deployer.numRbUl 50
param **.distThresh 200
param **.eNodeB*.txPower 19952.62315mw
param **.fbDelay 1
param **.feedbackComputation "xmldoc(\"config_channel.xml\")"
param **.mobility.constraintAreaMaxX 1000m
param **.mobility.constraintAreaMaxY 1000m
param **.mobility.constraintAreaMaxZ 0m
param **.mobility.constraintAreaMinX 0m
param **.mobility.constraintAreaMinY 0m
param **.mobility.constraintAreaMinZ 0m
param **.networkType "\"CAIN\""
param **.nic.phy.channelModel "xmldoc(\"config_channel.xml\")"
param **.numBands 50
param **.pwrThresh "${pwr= -60}"
param **.qtdThresh 3
param **.rbAllocationType "\"localized\""
param **.routingRecorder.enabled false
param **.tcpApp[*].tClose -1s
param **.ueD2DTx[*].mobility.changeAngleBy "normal(0deg, 30deg)"
param **.ueD2DTx[*].mobility.changeInterval "normal(5s, 0.1s)"
param **.ueD2DTx[*].mobility.nodeId -1
param **.ueD2DTx[*].mobility.traceFile "${mob=\"./movements/RWP-0.0.movements\",\"./movements/RWP-0.5.movements\",\"./movements/RPGM-0.0.movements\",\"./movements/RPGM-0.5.movements\",\"./movements/RWPRPGM-0.0.movements\",\"./movements/RWPRPGM-0.5.movements\"}"
param **.ueD2DTx[*].mobilityType "\"BonnMotionMobility\""
param **.usePreconfiguredTxParams false
param *.eNodeB*.mobility.initialY 300m
param *.eNodeB.d2dCapable false
param *.eNodeB.mobility.initFromDisplayString false
param *.eNodeB.mobility.initialX 300m
param *.eNodeB.mobility.initialY 300m
param *.eNodeB[*].d2dCapable true
param *.eNodeB[*].mobility.initFromDisplayString false
param *.eNodeB[*].mobility.initialX 300m+(ancestorIndex(1))*400m
param *.eNodeB[*].nic.phy.enableD2DCqiReporting true
param *.numEnB "${nEnb= 1}"
param *.numUeCell 0
param *.numUeD2DRx 1
param *.numUeD2DTx 1
param *.ue*.macCellId 1
param *.ue*.masterId 1
param *.ue*.mobility.initFromDisplayString false
param *.ue*.nic.d2dCapable true
param *.ue*[0].macCellId 1
param *.ue*[0].masterId 1
param *.ue*[0].mobility.initFromDisplayString false
param *.ueD2D*.numTcpApps 1
param *.ueD2D*[*].d2dCapable true
param *.ueD2D*[0].d2dCapable false
param *.ueD2D*[0].numTcpApps 1
param *.ueD2DRx[0].mobility.initialX 310m
param *.ueD2DRx[0].mobility.initialY 350m
param *.ueD2DRx[0].tcpApp[*].localPort 1000
param *.ueD2DRx[0].tcpApp[*].typename "\"TCPSinkApp\""
param *.ueD2DTx*.nic.d2dPeerAddresses "\"ueD2DTx[1]\""
param *.ueD2DTx*.tcpApp[*].connectAddress "\"ueD2DTx[0]\""
param *.ueD2DTx*.tcpApp[*].localAddress "\"ueD2DTx\""
param *.ueD2DTx*.tcpApp[*].localPort 1000
param *.ueD2DTx*.tcpApp[*].sendBytes 1GiB
param *.ueD2DTx*.tcpApp[*].typename "\"TCPSessionApp\""
param *.ueD2DTx*.tcpApp[0].active true
param *.ueD2DTx*.tcpApp[0].connectPort 1000
param *.ueD2DTx*.tcpApp[0].tOpen uniform(0.010s,0.1s)
param *.ueD2DTx*.tcpApp[0].tSend uniform(0.15s,0.5s)
param *.ueD2DTx[0].mobility.initialX 290m
param *.ueD2DTx[0].mobility.initialY 350m
param *.ueD2DTx[0].tcpApp[*].localPort 1000
param *.ueD2DTx[0].tcpApp[*].sendBytes 1GiB
param *.ueD2DTx[0].tcpApp[*].typename "\"TCPSessionApp\""
param *.ueD2DTx[0].tcpApp[0].active true
param *.ueD2DTx[0].tcpApp[0].connectAddress "\"ueD2DRx[0]\""
param *.ueD2DTx[0].tcpApp[0].connectPort 1000
param *.ueD2DTx[0].tcpApp[0].localAddress "\"ueD2DTx[0]\""
param *.ueD2DTx[0].tcpApp[0].tOpen uniform(0.010s,0.1s)
param *.ueD2DTx[0].tcpApp[0].tSend uniform(0.15s,0.5s)

scalar . 	nEnb 	1
scalar . 	numUe 	20
scalar . 	pwr 	-60
scalar CAINsimple.server.networkLayer.arp 	failedARPResolution:count 	0
attr title  "ARP failed resolutions, count"
scalar CAINsimple.server.networkLayer.arp 	completedARPResolution:count 	0
attr title  "ARP completed resolutions, count"
scalar CAINsimple.server.networkLayer.arp 	initiatedARPResolution:count 	0
attr title  "ARP initiated resolutions, count"
scalar CAINsimple.server.networkLayer.arp 	sentReply:count 	0
attr title  "ARP replies sent, count"
scalar CAINsimple.server.networkLayer.arp 	sentReq:count 	0
attr title  "ARP request sent, count"
scalar CAINsimple.server.lo0.lo 	droppedPkBitError:count 	0
attr interpolationmode  none
attr source  dropPkBitError
attr title  "packets dropped/bit error, count"
scalar CAINsimple.server.lo0.lo 	droppedPkBitError:sum(packetBytes) 	0
attr interpolationmode  none
attr source  dropPkBitError
attr title  "packets dropped/bit error, sum(packetBytes)"
scalar CAINsimple.server.lo0.lo 	rcvdPkFromHL:count 	0
attr interpolationmode  none
attr source  packetReceivedFromUpper
attr title  "packets received from higher layer, count"
scalar CAINsimple.server.lo0.lo 	rcvdPkFromHL:sum(packetBytes) 	0
attr interpolationmode  none
attr source  packetReceivedFromUpper
attr title  "packets received from higher layer, sum(packetBytes)"
scalar CAINsimple.server.lo0.lo 	passedUpPk:count 	0
attr interpolationmode  none
attr source  packetSentToUpper
attr title  "packets passed to higher layer, count"
scalar CAINsimple.server.lo0.lo 	passedUpPk:sum(packetBytes) 	0
attr interpolationmode  none
attr source  packetSentToUpper
attr title  "packets passed to higher layer, sum(packetBytes)"
statistic CAINsimple.server.ppp[0].queue 	queueingTime:histogram
field count 0
field mean -nan
field stddev -nan
field sum 0
field sqrsum 0
field min -nan
field max -nan
attr interpolationmode  none
attr title  "queueing time, histogram"
bin	-INF	0
bin	-0.5	0
bin	-0.46666666666667	0
bin	-0.43333333333333	0
bin	-0.4	0
bin	-0.36666666666667	0
bin	-0.33333333333333	0
bin	-0.3	0
bin	-0.26666666666667	0
bin	-0.23333333333333	0
bin	-0.2	0
bin	-0.16666666666667	0
bin	-0.13333333333333	0
bin	-0.1	0
bin	-0.066666666666667	0
bin	-0.033333333333333	0
bin	0	0
bin	0.033333333333333	0
bin	0.066666666666667	0
bin	0.1	0
bin	0.13333333333333	0
bin	0.16666666666667	0
bin	0.2	0
bin	0.23333333333333	0
bin	0.26666666666667	0
bin	0.3	0
bin	0.33333333333333	0
bin	0.36666666666667	0
bin	0.4	0
bin	0.43333333333333	0
bin	0.46666666666667	0
bin	0.5	0
scalar CAINsimple.server.ppp[0].queue 	dropPk:count 	0
attr interpolationmode  none
attr source  dropPkByQueue
attr title  "dropped packets, count"
scalar CAINsimple.server.ppp[0].queue 	dropPk:sum(packetBytes) 	0
attr interpolationmode  none
attr source  dropPkByQueue
attr title  "dropped packets, sum(packetBytes)"
scalar CAINsimple.server.ppp[0].queue 	queueLength:max 	0
attr interpolationmode  sample-hold
attr title  "queue length, max"
scalar CAINsimple.server.ppp[0].queue 	queueLength:timeavg 	0
attr interpolationmode  sample-hold
attr title  "queue length, timeavg"
scalar CAINsimple.server.ppp[0].queue 	rcvdPk:count 	0
attr interpolationmode  none
attr title  "received packets, count"
scalar CAINsimple.server.ppp[0].queue 	rcvdPk:sum(packetBytes) 	0
attr interpolationmode  none
attr title  "received packets, sum(packetBytes)"
scalar CAINsimple.server.ppp[0].ppp 	txState:timeavg 	0
attr interpolationmode  sample-hold
attr title  "tx state, timeavg"
scalar CAINsimple.server.ppp[0].ppp 	droppedPkIfaceDown:count 	0
attr interpolationmode  none
attr source  dropPkIfaceDown
attr title  "packets dropped/interface down, count"
scalar CAINsimple.server.ppp[0].ppp 	droppedPkIfaceDown:sum(packetBytes) 	0
attr interpolationmode  none
attr source  dropPkIfaceDown
attr title  "packets dropped/interface down, sum(packetBytes)"
scalar CAINsimple.server.ppp[0].ppp 	droppedPkBitError:count 	0
attr interpolationmode  none
attr source  dropPkBitError
attr title  "packets dropped/bit error, count"
scalar CAINsimple.server.ppp[0].ppp 	droppedPkBitError:sum(packetBytes) 	0
attr interpolationmode  none
attr source  dropPkBitError
attr title  "packets dropped/bit error, sum(packetBytes)"
scalar CAINsimple.server.ppp[0].ppp 	rxPkOk:count 	0
attr interpolationmode  none
attr source  rxPkOk
attr title  "packets received OK, count"
scalar CAINsimple.server.ppp[0].ppp 	rxPkOk:sum(packetBytes) 	0
attr interpolationmode  none
attr source  rxPkOk
attr title  "packets received OK, sum(packetBytes)"
scalar CAINsimple.server.ppp[0].ppp 	txPk:count 	0
attr interpolationmode  none
attr source  packetSentToLower
attr title  "packets transmitted, count"
scalar CAINsimple.server.ppp[0].ppp 	txPk:sum(packetBytes) 	0
attr interpolationmode  none
attr source  packetSentToLower
attr title  "packets transmitted, sum(packetBytes)"
scalar CAINsimple.server.ppp[0].ppp 	rcvdPkFromHL:count 	0
attr interpolationmode  none
attr source  packetReceivedFromUpper
attr title  "packets received from higher layer, count"
scalar CAINsimple.server.ppp[0].ppp 	rcvdPkFromHL:sum(packetBytes) 	0
attr interpolationmode  none
attr source  packetReceivedFromUpper
attr title  "packets received from higher layer, sum(packetBytes)"
scalar CAINsimple.server.ppp[0].ppp 	passedUpPk:count 	0
attr interpolationmode  none
attr source  packetSentToUpper
attr title  "packets passed to higher layer, count"
scalar CAINsimple.server.ppp[0].ppp 	passedUpPk:sum(packetBytes) 	0
attr interpolationmode  none
attr source  packetSentToUpper
attr title  "packets passed to higher layer, sum(packetBytes)"
scalar CAINsimple.router.networkLayer.arp 	failedARPResolution:count 	0
attr title  "ARP failed resolutions, count"
scalar CAINsimple.router.networkLayer.arp 	completedARPResolution:count 	0
attr title  "ARP completed resolutions, count"
scalar CAINsimple.router.networkLayer.arp 	initiatedARPResolution:count 	0
attr title  "ARP initiated resolutions, count"
scalar CAINsimple.router.networkLayer.arp 	sentReply:count 	0
attr title  "ARP replies sent, count"
scalar CAINsimple.router.networkLayer.arp 	sentReq:count 	0
attr title  "ARP request sent, count"
scalar CAINsimple.router.lo0.lo 	droppedPkBitError:count 	0
attr interpolationmode  none
attr source  dropPkBitError
attr title  "packets dropped/bit error, count"
scalar CAINsimple.router.lo0.lo 	droppedPkBitError:sum(packetBytes) 	0
attr interpolationmode  none
attr source  dropPkBitError
attr title  "packets dropped/bit error, sum(packetBytes)"
scalar CAINsimple.router.lo0.lo 	rcvdPkFromHL:count 	0
attr interpolationmode  none
attr source  packetReceivedFromUpper
attr title  "packets received from higher layer, count"
scalar CAINsimple.router.lo0.lo 	rcvdPkFromHL:sum(packetBytes) 	0
attr interpolationmode  none
attr source  packetReceivedFromUpper
attr title  "packets received from higher layer, sum(packetBytes)"
scalar CAINsimple.router.lo0.lo 	passedUpPk:count 	0
attr interpolationmode  none
attr source  packetSentToUpper
attr title  "packets passed to higher layer, count"
scalar CAINsimple.router.lo0.lo 	passedUpPk:sum(packetBytes) 	0
attr interpolationmode  none
attr source  packetSentToUpper
attr title  "packets passed to higher layer, sum(packetBytes)"
statistic CAINsimple.router.ppp[0].queue 	queueingTime:histogram
field count 0
field mean -nan
field stddev -nan
field sum 0
field sqrsum 0
field min -nan
field max -nan
attr interpolationmode  none
attr title  "queueing time, histogram"
bin	-INF	0
bin	-0.5	0
bin	-0.46666666666667	0
bin	-0.43333333333333	0
bin	-0.4	0
bin	-0.36666666666667	0
bin	-0.33333333333333	0
bin	-0.3	0
bin	-0.26666666666667	0
bin	-0.23333333333333	0
bin	-0.2	0
bin	-0.16666666666667	0
bin	-0.13333333333333	0
bin	-0.1	0
bin	-0.066666666666667	0
bin	-0.033333333333333	0
bin	0	0
bin	0.033333333333333	0
bin	0.066666666666667	0
bin	0.1	0
bin	0.13333333333333	0
bin	0.16666666666667	0
bin	0.2	0
bin	0.23333333333333	0
bin	0.26666666666667	0
bin	0.3	0
bin	0.33333333333333	0
bin	0.36666666666667	0
bin	0.4	0
bin	0.43333333333333	0
bin	0.46666666666667	0
bin	0.5	0
scalar CAINsimple.router.ppp[0].queue 	dropPk:count 	0
attr interpolationmode  none
attr source  dropPkByQueue
attr title  "dropped packets, count"
scalar CAINsimple.router.ppp[0].queue 	dropPk:sum(packetBytes) 	0
attr interpolationmode  none
attr source  dropPkByQueue
attr title  "dropped packets, sum(packetBytes)"
scalar CAINsimple.router.ppp[0].queue 	queueLength:max 	0
attr interpolationmode  sample-hold
attr title  "queue length, max"
scalar CAINsimple.router.ppp[0].queue 	queueLength:timeavg 	0
attr interpolationmode  sample-hold
attr title  "queue length, timeavg"
scalar CAINsimple.router.ppp[0].queue 	rcvdPk:count 	0
attr interpolationmode  none
attr title  "received packets, count"
scalar CAINsimple.router.ppp[0].queue 	rcvdPk:sum(packetBytes) 	0
attr interpolationmode  none
attr title  "received packets, sum(packetBytes)"
scalar CAINsimple.router.ppp[0].ppp 	txState:timeavg 	0
attr interpolationmode  sample-hold
attr title  "tx state, timeavg"
scalar CAINsimple.router.ppp[0].ppp 	droppedPkIfaceDown:count 	0
attr interpolationmode  none
attr source  dropPkIfaceDown
attr title  "packets dropped/interface down, count"
scalar CAINsimple.router.ppp[0].ppp 	droppedPkIfaceDown:sum(packetBytes) 	0
attr interpolationmode  none
attr source  dropPkIfaceDown
attr title  "packets dropped/interface down, sum(packetBytes)"
scalar CAINsimple.router.ppp[0].ppp 	droppedPkBitError:count 	0
attr interpolationmode  none
attr source  dropPkBitError
attr title  "packets dropped/bit error, count"
scalar CAINsimple.router.ppp[0].ppp 	droppedPkBitError:sum(packetBytes) 	0
attr interpolationmode  none
attr source  dropPkBitError
attr title  "packets dropped/bit error, sum(packetBytes)"
scalar CAINsimple.router.ppp[0].ppp 	rxPkOk:count 	0
attr interpolationmode  none
attr source  rxPkOk
attr title  "packets received OK, count"
scalar CAINsimple.router.ppp[0].ppp 	rxPkOk:sum(packetBytes) 	0
attr interpolationmode  none
attr source  rxPkOk
attr title  "packets received OK, sum(packetBytes)"
scalar CAINsimple.router.ppp[0].ppp 	txPk:count 	0
attr interpolationmode  none
attr source  packetSentToLower
attr title  "packets transmitted, count"
scalar CAINsimple.router.ppp[0].ppp 	txPk:sum(packetBytes) 	0
attr interpolationmode  none
attr source  packetSentToLower
attr title  "packets transmitted, sum(packetBytes)"
scalar CAINsimple.router.ppp[0].ppp 	rcvdPkFromHL:count 	0
attr interpolationmode  none
attr source  packetReceivedFromUpper
attr title  "packets received from higher layer, count"
scalar CAINsimple.router.ppp[0].ppp 	rcvdPkFromHL:sum(packetBytes) 	0
attr interpolationmode  none
attr source  packetReceivedFromUpper
attr title  "packets received from higher layer, sum(packetBytes)"
scalar CAINsimple.router.ppp[0].ppp 	passedUpPk:count 	0
attr interpolationmode  none
attr source  packetSentToUpper
attr title  "packets passed to higher layer, count"
scalar CAINsimple.router.ppp[0].ppp 	passedUpPk:sum(packetBytes) 	0
attr interpolationmode  none
attr source  packetSentToUpper
attr title  "packets passed to higher layer, sum(packetBytes)"
statistic CAINsimple.router.ppp[1].queue 	queueingTime:histogram
field count 0
field mean -nan
field stddev -nan
field sum 0
field sqrsum 0
field min -nan
field max -nan
attr interpolationmode  none
attr title  "queueing time, histogram"
bin	-INF	0
bin	-0.5	0
bin	-0.46666666666667	0
bin	-0.43333333333333	0
bin	-0.4	0
bin	-0.36666666666667	0
bin	-0.33333333333333	0
bin	-0.3	0
bin	-0.26666666666667	0
bin	-0.23333333333333	0
bin	-0.2	0
bin	-0.16666666666667	0
bin	-0.13333333333333	0
bin	-0.1	0
bin	-0.066666666666667	0
bin	-0.033333333333333	0
bin	0	0
bin	0.033333333333333	0
bin	0.066666666666667	0
bin	0.1	0
bin	0.13333333333333	0
bin	0.16666666666667	0
bin	0.2	0
bin	0.23333333333333	0
bin	0.26666666666667	0
bin	0.3	0
bin	0.33333333333333	0
bin	0.36666666666667	0
bin	0.4	0
bin	0.43333333333333	0
bin	0.46666666666667	0
bin	0.5	0
scalar CAINsimple.router.ppp[1].queue 	dropPk:count 	0
attr interpolationmode  none
attr source  dropPkByQueue
attr title  "dropped packets, count"
scalar CAINsimple.router.ppp[1].queue 	dropPk:sum(packetBytes) 	0
attr interpolationmode  none
attr source  dropPkByQueue
attr title  "dropped packets, sum(packetBytes)"
scalar CAINsimple.router.ppp[1].queue 	queueLength:max 	0
attr interpolationmode  sample-hold
attr title  "queue length, max"
scalar CAINsimple.router.ppp[1].queue 	queueLength:timeavg 	0
attr interpolationmode  sample-hold
attr title  "queue length, timeavg"
scalar CAINsimple.router.ppp[1].queue 	rcvdPk:count 	0
attr interpolationmode  none
attr title  "received packets, count"
scalar CAINsimple.router.ppp[1].queue 	rcvdPk:sum(packetBytes) 	0
attr interpolationmode  none
attr title  "received packets, sum(packetBytes)"
scalar CAINsimple.router.ppp[1].ppp 	txState:timeavg 	0
attr interpolationmode  sample-hold
attr title  "tx state, timeavg"
scalar CAINsimple.router.ppp[1].ppp 	droppedPkIfaceDown:count 	0
attr interpolationmode  none
attr source  dropPkIfaceDown
attr title  "packets dropped/interface down, count"
scalar CAINsimple.router.ppp[1].ppp 	droppedPkIfaceDown:sum(packetBytes) 	0
attr interpolationmode  none
attr source  dropPkIfaceDown
attr title  "packets dropped/interface down, sum(packetBytes)"
scalar CAINsimple.router.ppp[1].ppp 	droppedPkBitError:count 	0
attr interpolationmode  none
attr source  dropPkBitError
attr title  "packets dropped/bit error, count"
scalar CAINsimple.router.ppp[1].ppp 	droppedPkBitError:sum(packetBytes) 	0
attr interpolationmode  none
attr source  dropPkBitError
attr title  "packets dropped/bit error, sum(packetBytes)"
scalar CAINsimple.router.ppp[1].ppp 	rxPkOk:count 	0
attr interpolationmode  none
attr source  rxPkOk
attr title  "packets received OK, count"
scalar CAINsimple.router.ppp[1].ppp 	rxPkOk:sum(packetBytes) 	0
attr interpolationmode  none
attr source  rxPkOk
attr title  "packets received OK, sum(packetBytes)"
scalar CAINsimple.router.ppp[1].ppp 	txPk:count 	0
attr interpolationmode  none
attr source  packetSentToLower
attr title  "packets transmitted, count"
scalar CAINsimple.router.ppp[1].ppp 	txPk:sum(packetBytes) 	0
attr interpolationmode  none
attr source  packetSentToLower
attr title  "packets transmitted, sum(packetBytes)"
scalar CAINsimple.router.ppp[1].ppp 	rcvdPkFromHL:count 	0
attr interpolationmode  none
attr source  packetReceivedFromUpper
attr title  "packets received from higher layer, count"
scalar CAINsimple.router.ppp[1].ppp 	rcvdPkFromHL:sum(packetBytes) 	0
attr interpolationmode  none
attr source  packetReceivedFromUpper
attr title  "packets received from higher layer, sum(packetBytes)"
scalar CAINsimple.router.ppp[1].ppp 	passedUpPk:count 	0
attr interpolationmode  none
attr source  packetSentToUpper
attr title  "packets passed to higher layer, count"
scalar CAINsimple.router.ppp[1].ppp 	passedUpPk:sum(packetBytes) 	0
attr interpolationmode  none
attr source  packetSentToUpper
attr title  "packets passed to higher layer, sum(packetBytes)"
scalar CAINsimple.pgw.networkLayer.arp 	failedARPResolution:count 	0
attr title  "ARP failed resolutions, count"
scalar CAINsimple.pgw.networkLayer.arp 	completedARPResolution:count 	0
attr title  "ARP completed resolutions, count"
scalar CAINsimple.pgw.networkLayer.arp 	initiatedARPResolution:count 	0
attr title  "ARP initiated resolutions, count"
scalar CAINsimple.pgw.networkLayer.arp 	sentReply:count 	0
attr title  "ARP replies sent, count"
scalar CAINsimple.pgw.networkLayer.arp 	sentReq:count 	0
attr title  "ARP request sent, count"
scalar CAINsimple.pgw.lo0.lo 	droppedPkBitError:count 	0
attr interpolationmode  none
attr source  dropPkBitError
attr title  "packets dropped/bit error, count"
scalar CAINsimple.pgw.lo0.lo 	droppedPkBitError:sum(packetBytes) 	0
attr interpolationmode  none
attr source  dropPkBitError
attr title  "packets dropped/bit error, sum(packetBytes)"
scalar CAINsimple.pgw.lo0.lo 	rcvdPkFromHL:count 	0
attr interpolationmode  none
attr source  packetReceivedFromUpper
attr title  "packets received from higher layer, count"
scalar CAINsimple.pgw.lo0.lo 	rcvdPkFromHL:sum(packetBytes) 	0
attr interpolationmode  none
attr source  packetReceivedFromUpper
attr title  "packets received from higher layer, sum(packetBytes)"
scalar CAINsimple.pgw.lo0.lo 	passedUpPk:count 	0
attr interpolationmode  none
attr source  packetSentToUpper
attr title  "packets passed to higher layer, count"
scalar CAINsimple.pgw.lo0.lo 	passedUpPk:sum(packetBytes) 	0
attr interpolationmode  none
attr source  packetSentToUpper
attr title  "packets passed to higher layer, sum(packetBytes)"
statistic CAINsimple.pgw.ppp[0].queue 	queueingTime:histogram
field count 0
field mean -nan
field stddev -nan
field sum 0
field sqrsum 0
field min -nan
field max -nan
attr interpolationmode  none
attr title  "queueing time, histogram"
bin	-INF	0
bin	-0.5	0
bin	-0.46666666666667	0
bin	-0.43333333333333	0
bin	-0.4	0
bin	-0.36666666666667	0
bin	-0.33333333333333	0
bin	-0.3	0
bin	-0.26666666666667	0
bin	-0.23333333333333	0
bin	-0.2	0
bin	-0.16666666666667	0
bin	-0.13333333333333	0
bin	-0.1	0
bin	-0.066666666666667	0
bin	-0.033333333333333	0
bin	0	0
bin	0.033333333333333	0
bin	0.066666666666667	0
bin	0.1	0
bin	0.13333333333333	0
bin	0.16666666666667	0
bin	0.2	0
bin	0.23333333333333	0
bin	0.26666666666667	0
bin	0.3	0
bin	0.33333333333333	0
bin	0.36666666666667	0
bin	0.4	0
bin	0.43333333333333	0
bin	0.46666666666667	0
bin	0.5	0
scalar CAINsimple.pgw.ppp[0].queue 	dropPk:count 	0
attr interpolationmode  none
attr source  dropPkByQueue
attr title  "dropped packets, count"
scalar CAINsimple.pgw.ppp[0].queue 	dropPk:sum(packetBytes) 	0
attr interpolationmode  none
attr source  dropPkByQueue
attr title  "dropped packets, sum(packetBytes)"
scalar CAINsimple.pgw.ppp[0].queue 	queueLength:max 	0
attr interpolationmode  sample-hold
attr title  "queue length, max"
scalar CAINsimple.pgw.ppp[0].queue 	queueLength:timeavg 	0
attr interpolationmode  sample-hold
attr title  "queue length, timeavg"
scalar CAINsimple.pgw.ppp[0].queue 	rcvdPk:count 	0
attr interpolationmode  none
attr title  "received packets, count"
scalar CAINsimple.pgw.ppp[0].queue 	rcvdPk:sum(packetBytes) 	0
attr interpolationmode  none
attr title  "received packets, sum(packetBytes)"
scalar CAINsimple.pgw.ppp[0].ppp 	txState:timeavg 	0
attr interpolationmode  sample-hold
attr title  "tx state, timeavg"
scalar CAINsimple.pgw.ppp[0].ppp 	droppedPkIfaceDown:count 	0
attr interpolationmode  none
attr source  dropPkIfaceDown
attr title  "packets dropped/interface down, count"
scalar CAINsimple.pgw.ppp[0].ppp 	droppedPkIfaceDown:sum(packetBytes) 	0
attr interpolationmode  none
attr source  dropPkIfaceDown
attr title  "packets dropped/interface down, sum(packetBytes)"
scalar CAINsimple.pgw.ppp[0].ppp 	droppedPkBitError:count 	0
attr interpolationmode  none
attr source  dropPkBitError
attr title  "packets dropped/bit error, count"
scalar CAINsimple.pgw.ppp[0].ppp 	droppedPkBitError:sum(packetBytes) 	0
attr interpolationmode  none
attr source  dropPkBitError
attr title  "packets dropped/bit error, sum(packetBytes)"
scalar CAINsimple.pgw.ppp[0].ppp 	rxPkOk:count 	0
attr interpolationmode  none
attr source  rxPkOk
attr title  "packets received OK, count"
scalar CAINsimple.pgw.ppp[0].ppp 	rxPkOk:sum(packetBytes) 	0
attr interpolationmode  none
attr source  rxPkOk
attr title  "packets received OK, sum(packetBytes)"
scalar CAINsimple.pgw.ppp[0].ppp 	txPk:count 	0
attr interpolationmode  none
attr source  packetSentToLower
attr title  "packets transmitted, count"
scalar CAINsimple.pgw.ppp[0].ppp 	txPk:sum(packetBytes) 	0
attr interpolationmode  none
attr source  packetSentToLower
attr title  "packets transmitted, sum(packetBytes)"
scalar CAINsimple.pgw.ppp[0].ppp 	rcvdPkFromHL:count 	0
attr interpolationmode  none
attr source  packetReceivedFromUpper
attr title  "packets received from higher layer, count"
scalar CAINsimple.pgw.ppp[0].ppp 	rcvdPkFromHL:sum(packetBytes) 	0
attr interpolationmode  none
attr source  packetReceivedFromUpper
attr title  "packets received from higher layer, sum(packetBytes)"
scalar CAINsimple.pgw.ppp[0].ppp 	passedUpPk:count 	0
attr interpolationmode  none
attr source  packetSentToUpper
attr title  "packets passed to higher layer, count"
scalar CAINsimple.pgw.ppp[0].ppp 	passedUpPk:sum(packetBytes) 	0
attr interpolationmode  none
attr source  packetSentToUpper
attr title  "packets passed to higher layer, sum(packetBytes)"
statistic CAINsimple.pgw.pppInterface.queue 	queueingTime:histogram
field count 0
field mean -nan
field stddev -nan
field sum 0
field sqrsum 0
field min -nan
field max -nan
attr interpolationmode  none
attr title  "queueing time, histogram"
bin	-INF	0
bin	-0.5	0
bin	-0.46666666666667	0
bin	-0.43333333333333	0
bin	-0.4	0
bin	-0.36666666666667	0
bin	-0.33333333333333	0
bin	-0.3	0
bin	-0.26666666666667	0
bin	-0.23333333333333	0
bin	-0.2	0
bin	-0.16666666666667	0
bin	-0.13333333333333	0
bin	-0.1	0
bin	-0.066666666666667	0
bin	-0.033333333333333	0
bin	0	0
bin	0.033333333333333	0
bin	0.066666666666667	0
bin	0.1	0
bin	0.13333333333333	0
bin	0.16666666666667	0
bin	0.2	0
bin	0.23333333333333	0
bin	0.26666666666667	0
bin	0.3	0
bin	0.33333333333333	0
bin	0.36666666666667	0
bin	0.4	0
bin	0.43333333333333	0
bin	0.46666666666667	0
bin	0.5	0
scalar CAINsimple.pgw.pppInterface.queue 	dropPk:count 	0
attr interpolationmode  none
attr source  dropPkByQueue
attr title  "dropped packets, count"
scalar CAINsimple.pgw.pppInterface.queue 	dropPk:sum(packetBytes) 	0
attr interpolationmode  none
attr source  dropPkByQueue
attr title  "dropped packets, sum(packetBytes)"
scalar CAINsimple.pgw.pppInterface.queue 	queueLength:max 	0
attr interpolationmode  sample-hold
attr title  "queue length, max"
scalar CAINsimple.pgw.pppInterface.queue 	queueLength:timeavg 	0
attr interpolationmode  sample-hold
attr title  "queue length, timeavg"
scalar CAINsimple.pgw.pppInterface.queue 	rcvdPk:count 	0
attr interpolationmode  none
attr title  "received packets, count"
scalar CAINsimple.pgw.pppInterface.queue 	rcvdPk:sum(packetBytes) 	0
attr interpolationmode  none
attr title  "received packets, sum(packetBytes)"
scalar CAINsimple.pgw.pppInterface.ppp 	txState:timeavg 	0
attr interpolationmode  sample-hold
attr title  "tx state, timeavg"
scalar CAINsimple.pgw.pppInterface.ppp 	droppedPkIfaceDown:count 	0
attr interpolationmode  none
attr source  dropPkIfaceDown
attr title  "packets dropped/interface down, count"
scalar CAINsimple.pgw.pppInterface.ppp 	droppedPkIfaceDown:sum(packetBytes) 	0
attr interpolationmode  none
attr source  dropPkIfaceDown
attr title  "packets dropped/interface down, sum(packetBytes)"
scalar CAINsimple.pgw.pppInterface.ppp 	droppedPkBitError:count 	0
attr interpolationmode  none
attr source  dropPkBitError
attr title  "packets dropped/bit error, count"
scalar CAINsimple.pgw.pppInterface.ppp 	droppedPkBitError:sum(packetBytes) 	0
attr interpolationmode  none
attr source  dropPkBitError
attr title  "packets dropped/bit error, sum(packetBytes)"
scalar CAINsimple.pgw.pppInterface.ppp 	rxPkOk:count 	0
attr interpolationmode  none
attr source  rxPkOk
attr title  "packets received OK, count"
scalar CAINsimple.pgw.pppInterface.ppp 	rxPkOk:sum(packetBytes) 	0
attr interpolationmode  none
attr source  rxPkOk
attr title  "packets received OK, sum(packetBytes)"
scalar CAINsimple.pgw.pppInterface.ppp 	txPk:count 	0
attr interpolationmode  none
attr source  packetSentToLower
attr title  "packets transmitted, count"
scalar CAINsimple.pgw.pppInterface.ppp 	txPk:sum(packetBytes) 	0
attr interpolationmode  none
attr source  packetSentToLower
attr title  "packets transmitted, sum(packetBytes)"
scalar CAINsimple.pgw.pppInterface.ppp 	rcvdPkFromHL:count 	0
attr interpolationmode  none
attr source  packetReceivedFromUpper
attr title  "packets received from higher layer, count"
scalar CAINsimple.pgw.pppInterface.ppp 	rcvdPkFromHL:sum(packetBytes) 	0
attr interpolationmode  none
attr source  packetReceivedFromUpper
attr title  "packets received from higher layer, sum(packetBytes)"
scalar CAINsimple.pgw.pppInterface.ppp 	passedUpPk:count 	0
attr interpolationmode  none
attr source  packetSentToUpper
attr title  "packets passed to higher layer, count"
scalar CAINsimple.pgw.pppInterface.ppp 	passedUpPk:sum(packetBytes) 	0
attr interpolationmode  none
attr source  packetSentToUpper
attr title  "packets passed to higher layer, sum(packetBytes)"
scalar CAINsimple.pgw.udp 	droppedPkBadChecksum:count 	0
attr interpolationmode  none
attr title  "packets dropped (checksum error), count"
scalar CAINsimple.pgw.udp 	droppedPkWrongPort:count 	0
attr interpolationmode  none
attr title  "packets dropped (wrong port), count"
scalar CAINsimple.pgw.udp 	passedUpPk:count 	0
attr interpolationmode  none
attr title  "packets passed up, count"
scalar CAINsimple.pgw.udp 	rcvdPk:count 	0
attr interpolationmode  none
attr source  rcvdPk
attr title  "packets received, count"
scalar CAINsimple.pgw.udp 	rcvdPk:sum(packetBytes) 	0
attr interpolationmode  none
attr source  rcvdPk
attr title  "packets received, sum(packetBytes)"
scalar CAINsimple.pgw.udp 	sentPk:count 	0
attr interpolationmode  none
attr source  sentPk
attr title  "packets sent, count"
scalar CAINsimple.pgw.udp 	sentPk:sum(packetBytes) 	0
attr interpolationmode  none
attr source  sentPk
attr title  "packets sent, sum(packetBytes)"
scalar CAINsimple.eNodeB[0].nic.pdcpRrc 	sentPacketToLowerLayer:count 	0
attr interpolationmode  none
attr source  sentPacketToLowerLayer
scalar CAINsimple.eNodeB[0].nic.pdcpRrc 	sentPacketToLowerLayer:sum(packetBytes) 	0
attr interpolationmode  none
attr source  sentPacketToLowerLayer
scalar CAINsimple.eNodeB[0].nic.pdcpRrc 	sentPacketToUpperLayer:count 	0
attr interpolationmode  none
attr source  sentPacketToUpperLayer
scalar CAINsimple.eNodeB[0].nic.pdcpRrc 	sentPacketToUpperLayer:sum(packetBytes) 	0
attr interpolationmode  none
attr source  sentPacketToUpperLayer
scalar CAINsimple.eNodeB[0].nic.pdcpRrc 	receivedPacketFromLowerLayer:count 	0
attr interpolationmode  none
attr source  receivedPacketFromLowerLayer
scalar CAINsimple.eNodeB[0].nic.pdcpRrc 	receivedPacketFromLowerLayer:sum(packetBytes) 	0
attr interpolationmode  none
attr source  receivedPacketFromLowerLayer
scalar CAINsimple.eNodeB[0].nic.pdcpRrc 	receivedPacketFromUpperLayer:count 	0
attr interpolationmode  none
attr source  receivedPacketFromUpperLayer
scalar CAINsimple.eNodeB[0].nic.pdcpRrc 	receivedPacketFromUpperLayer:sum(packetBytes) 	0
attr interpolationmode  none
attr source  receivedPacketFromUpperLayer
scalar CAINsimple.eNodeB[0].nic.mac 	cqiDlMuMimo4:lteAvg 	14.964607078584
attr source  cqiDlMuMimo4
attr title  "Average cqi MuMimo band 4, lteAvg"
attr unit  cqi
scalar CAINsimple.eNodeB[0].nic.mac 	cqiDlMuMimo4:lteAvg 	12.301139772046
attr source  cqiDlMuMimo4
attr title  "Average cqi MuMimo band 4, lteAvg"
attr unit  cqi
scalar CAINsimple.eNodeB[0].nic.mac 	cqiDlMuMimo4:lteAvg 	10.337732453509
attr source  cqiDlMuMimo4
attr title  "Average cqi MuMimo band 4, lteAvg"
attr unit  cqi
scalar CAINsimple.eNodeB[0].nic.mac 	cqiDlMuMimo4:lteAvg 	4.6832633473305
attr source  cqiDlMuMimo4
attr title  "Average cqi MuMimo band 4, lteAvg"
attr unit  cqi
scalar CAINsimple.eNodeB[0].nic.mac 	cqiDlMuMimo4:lteAvg 	4.4139172165567
attr source  cqiDlMuMimo4
attr title  "Average cqi MuMimo band 4, lteAvg"
attr unit  cqi
scalar CAINsimple.eNodeB[0].nic.mac 	cqiDlMuMimo4:lteAvg 	6.3611277744451
attr source  cqiDlMuMimo4
attr title  "Average cqi MuMimo band 4, lteAvg"
attr unit  cqi
scalar CAINsimple.eNodeB[0].nic.mac 	cqiDlMuMimo4:lteAvg 	7.0959808038392
attr source  cqiDlMuMimo4
attr title  "Average cqi MuMimo band 4, lteAvg"
attr unit  cqi
scalar CAINsimple.eNodeB[0].nic.mac 	cqiDlMuMimo4:lteAvg 	10.259148170366
attr source  cqiDlMuMimo4
attr title  "Average cqi MuMimo band 4, lteAvg"
attr unit  cqi
scalar CAINsimple.eNodeB[0].nic.mac 	cqiDlMuMimo4:lteAvg 	2.25374925015
attr source  cqiDlMuMimo4
attr title  "Average cqi MuMimo band 4, lteAvg"
attr unit  cqi
scalar CAINsimple.eNodeB[0].nic.mac 	cqiDlMuMimo4:lteAvg 	10
attr source  cqiDlMuMimo4
attr title  "Average cqi MuMimo band 4, lteAvg"
attr unit  cqi
scalar CAINsimple.eNodeB[0].nic.mac 	cqiDlMuMimo4:lteAvg 	10.940611877624
attr source  cqiDlMuMimo4
attr title  "Average cqi MuMimo band 4, lteAvg"
attr unit  cqi
scalar CAINsimple.eNodeB[0].nic.mac 	cqiDlMuMimo4:lteAvg 	10.328734253149
attr source  cqiDlMuMimo4
attr title  "Average cqi MuMimo band 4, lteAvg"
attr unit  cqi
scalar CAINsimple.eNodeB[0].nic.mac 	cqiDlMuMimo4:lteAvg 	13.692861427714
attr source  cqiDlMuMimo4
attr title  "Average cqi MuMimo band 4, lteAvg"
attr unit  cqi
scalar CAINsimple.eNodeB[0].nic.mac 	cqiDlMuMimo4:lteAvg 	7
attr source  cqiDlMuMimo4
attr title  "Average cqi MuMimo band 4, lteAvg"
attr unit  cqi
scalar CAINsimple.eNodeB[0].nic.mac 	cqiDlMuMimo4:lteAvg 	8
attr source  cqiDlMuMimo4
attr title  "Average cqi MuMimo band 4, lteAvg"
attr unit  cqi
scalar CAINsimple.eNodeB[0].nic.mac 	cqiDlMuMimo4:lteAvg 	2.2861427714457
attr source  cqiDlMuMimo4
attr title  "Average cqi MuMimo band 4, lteAvg"
attr unit  cqi
scalar CAINsimple.eNodeB[0].nic.mac 	cqiDlMuMimo4:lteAvg 	1.998800239952
attr source  cqiDlMuMimo4
attr title  "Average cqi MuMimo band 4, lteAvg"
attr unit  cqi
scalar CAINsimple.eNodeB[0].nic.mac 	cqiDlMuMimo4:lteAvg 	9.49850029994
attr source  cqiDlMuMimo4
attr title  "Average cqi MuMimo band 4, lteAvg"
attr unit  cqi
scalar CAINsimple.eNodeB[0].nic.mac 	cqiDlMuMimo4:lteAvg 	7.6796640671866
attr source  cqiDlMuMimo4
attr title  "Average cqi MuMimo band 4, lteAvg"
attr unit  cqi
scalar CAINsimple.eNodeB[0].nic.mac 	cqiDlMuMimo4:lteAvg 	7.1145770845831
attr source  cqiDlMuMimo4
attr title  "Average cqi MuMimo band 4, lteAvg"
attr unit  cqi
scalar CAINsimple.eNodeB[0].nic.mac 	cqiDlMuMimo3:lteAvg 	13.997600479904
attr source  cqiDlMuMimo3
attr title  "Average cqi MuMimo band 3, lteAvg"
attr unit  cqi
scalar CAINsimple.eNodeB[0].nic.mac 	cqiDlMuMimo3:lteAvg 	11.25374925015
attr source  cqiDlMuMimo3
attr title  "Average cqi MuMimo band 3, lteAvg"
attr unit  cqi
scalar CAINsimple.eNodeB[0].nic.mac 	cqiDlMuMimo3:lteAvg 	10.919016196761
attr source  cqiDlMuMimo3
attr title  "Average cqi MuMimo band 3, lteAvg"
attr unit  cqi
scalar CAINsimple.eNodeB[0].nic.mac 	cqiDlMuMimo3:lteAvg 	10.766046790642
attr source  cqiDlMuMimo3
attr title  "Average cqi MuMimo band 3, lteAvg"
attr unit  cqi
scalar CAINsimple.eNodeB[0].nic.mac 	cqiDlMuMimo3:lteAvg 	6.0785842831434
attr source  cqiDlMuMimo3
attr title  "Average cqi MuMimo band 3, lteAvg"
attr unit  cqi
scalar CAINsimple.eNodeB[0].nic.mac 	cqiDlMuMimo3:lteAvg 	2.6568686262747
attr source  cqiDlMuMimo3
attr title  "Average cqi MuMimo band 3, lteAvg"
attr unit  cqi
scalar CAINsimple.eNodeB[0].nic.mac 	cqiDlMuMimo3:lteAvg 	3.0605878824235
attr source  cqiDlMuMimo3
attr title  "Average cqi MuMimo band 3, lteAvg"
attr unit  cqi
scalar CAINsimple.eNodeB[0].nic.mac 	cqiDlMuMimo3:lteAvg 	9.3281343731254
attr source  cqiDlMuMimo3
attr title  "Average cqi MuMimo band 3, lteAvg"
attr unit  cqi
scalar CAINsimple.eNodeB[0].nic.mac 	cqiDlMuMimo3:lteAvg 	2.2393521295741
attr source  cqiDlMuMimo3
attr title  "Average cqi MuMimo band 3, lteAvg"
attr unit  cqi
scalar CAINsimple.eNodeB[0].nic.mac 	cqiDlMuMimo3:lteAvg 	12
attr source  cqiDlMuMimo3
attr title  "Average cqi MuMimo band 3, lteAvg"
attr unit  cqi
scalar CAINsimple.eNodeB[0].nic.mac 	cqiDlMuMimo3:lteAvg 	3.1445710857828
attr source  cqiDlMuMimo3
attr title  "Average cqi MuMimo band 3, lteAvg"
attr unit  cqi
scalar CAINsimple.eNodeB[0].nic.mac 	cqiDlMuMimo3:lteAvg 	12.838632273545
attr source  cqiDlMuMimo3
attr title  "Average cqi MuMimo band 3, lteAvg"
attr unit  cqi
scalar CAINsimple.eNodeB[0].nic.mac 	cqiDlMuMimo3:lteAvg 	13.997600479904
attr source  cqiDlMuMimo3
attr title  "Average cqi MuMimo band 3, lteAvg"
attr unit  cqi
scalar CAINsimple.eNodeB[0].nic.mac 	cqiDlMuMimo3:lteAvg 	2
attr source  cqiDlMuMimo3
attr title  "Average cqi MuMimo band 3, lteAvg"
attr unit  cqi
scalar CAINsimple.eNodeB[0].nic.mac 	cqiDlMuMimo3:lteAvg 	6
attr source  cqiDlMuMimo3
attr title  "Average cqi MuMimo band 3, lteAvg"
attr unit  cqi
scalar CAINsimple.eNodeB[0].nic.mac 	cqiDlMuMimo3:lteAvg 	8.5290941811638
attr source  cqiDlMuMimo3
attr title  "Average cqi MuMimo band 3, lteAvg"
attr unit  cqi
scalar CAINsimple.eNodeB[0].nic.mac 	cqiDlMuMimo3:lteAvg 	2
attr source  cqiDlMuMimo3
attr title  "Average cqi MuMimo band 3, lteAvg"
attr unit  cqi
scalar CAINsimple.eNodeB[0].nic.mac 	cqiDlMuMimo3:lteAvg 	11.151169766047
attr source  cqiDlMuMimo3
attr title  "Average cqi MuMimo band 3, lteAvg"
attr unit  cqi
scalar CAINsimple.eNodeB[0].nic.mac 	cqiDlMuMimo3:lteAvg 	7.368926214757
attr source  cqiDlMuMimo3
attr title  "Average cqi MuMimo band 3, lteAvg"
attr unit  cqi
scalar CAINsimple.eNodeB[0].nic.mac 	cqiDlMuMimo3:lteAvg 	7.7042591481704
attr source  cqiDlMuMimo3
attr title  "Average cqi MuMimo band 3, lteAvg"
attr unit  cqi
scalar CAINsimple.eNodeB[0].nic.mac 	cqiDlMuMimo2:lteAvg 	14.605878824235
attr source  cqiDlMuMimo2
attr title  "Average cqi MuMimo band 2, lteAvg"
attr unit  cqi
scalar CAINsimple.eNodeB[0].nic.mac 	cqiDlMuMimo2:lteAvg 	13.387522495501
attr source  cqiDlMuMimo2
attr title  "Average cqi MuMimo band 2, lteAvg"
attr unit  cqi
scalar CAINsimple.eNodeB[0].nic.mac 	cqiDlMuMimo2:lteAvg 	4.9334133173365
attr source  cqiDlMuMimo2
attr title  "Average cqi MuMimo band 2, lteAvg"
attr unit  cqi
scalar CAINsimple.eNodeB[0].nic.mac 	cqiDlMuMimo2:lteAvg 	12.191361727654
attr source  cqiDlMuMimo2
attr title  "Average cqi MuMimo band 2, lteAvg"
attr unit  cqi
scalar CAINsimple.eNodeB[0].nic.mac 	cqiDlMuMimo2:lteAvg 	3.4433113377325
attr source  cqiDlMuMimo2
attr title  "Average cqi MuMimo band 2, lteAvg"
attr unit  cqi
scalar CAINsimple.eNodeB[0].nic.mac 	cqiDlMuMimo2:lteAvg 	2.8206358728254
attr source  cqiDlMuMimo2
attr title  "Average cqi MuMimo band 2, lteAvg"
attr unit  cqi
scalar CAINsimple.eNodeB[0].nic.mac 	cqiDlMuMimo2:lteAvg 	9.9358128374325
attr source  cqiDlMuMimo2
attr title  "Average cqi MuMimo band 2, lteAvg"
attr unit  cqi
scalar CAINsimple.eNodeB[0].nic.mac 	cqiDlMuMimo2:lteAvg 	6.1451709658068
attr source  cqiDlMuMimo2
attr title  "Average cqi MuMimo band 2, lteAvg"
attr unit  cqi
scalar CAINsimple.eNodeB[0].nic.mac 	cqiDlMuMimo2:lteAvg 	2.99700059988
attr source  cqiDlMuMimo2
attr title  "Average cqi MuMimo band 2, lteAvg"
attr unit  cqi
scalar CAINsimple.eNodeB[0].nic.mac 	cqiDlMuMimo2:lteAvg 	6
attr source  cqiDlMuMimo2
attr title  "Average cqi MuMimo band 2, lteAvg"
attr unit  cqi
scalar CAINsimple.eNodeB[0].nic.mac 	cqiDlMuMimo2:lteAvg 	3.1619676064787
attr source  cqiDlMuMimo2
attr title  "Average cqi MuMimo band 2, lteAvg"
attr unit  cqi
scalar CAINsimple.eNodeB[0].nic.mac 	cqiDlMuMimo2:lteAvg 	5.4337132573485
attr source  cqiDlMuMimo2
attr title  "Average cqi MuMimo band 2, lteAvg"
attr unit  cqi
scalar CAINsimple.eNodeB[0].nic.mac 	cqiDlMuMimo2:lteAvg 	13.551289742052
attr source  cqiDlMuMimo2
attr title  "Average cqi MuMimo band 2, lteAvg"
attr unit  cqi
scalar CAINsimple.eNodeB[0].nic.mac 	cqiDlMuMimo2:lteAvg 	6
attr source  cqiDlMuMimo2
attr title  "Average cqi MuMimo band 2, lteAvg"
attr unit  cqi
scalar CAINsimple.eNodeB[0].nic.mac 	cqiDlMuMimo2:lteAvg 	9
attr source  cqiDlMuMimo2
attr title  "Average cqi MuMimo band 2, lteAvg"
attr unit  cqi
scalar CAINsimple.eNodeB[0].nic.mac 	cqiDlMuMimo2:lteAvg 	9.5422915416917
attr source  cqiDlMuMimo2
attr title  "Average cqi MuMimo band 2, lteAvg"
attr unit  cqi
scalar CAINsimple.eNodeB[0].nic.mac 	cqiDlMuMimo2:lteAvg 	1.998800239952
attr source  cqiDlMuMimo2
attr title  "Average cqi MuMimo band 2, lteAvg"
attr unit  cqi
scalar CAINsimple.eNodeB[0].nic.mac 	cqiDlMuMimo2:lteAvg 	7.4499100179964
attr source  cqiDlMuMimo2
attr title  "Average cqi MuMimo band 2, lteAvg"
attr unit  cqi
scalar CAINsimple.eNodeB[0].nic.mac 	cqiDlMuMimo2:lteAvg 	7.1553689262148
attr source  cqiDlMuMimo2
attr title  "Average cqi MuMimo band 2, lteAvg"
attr unit  cqi
scalar CAINsimple.eNodeB[0].nic.mac 	cqiDlMuMimo2:lteAvg 	7.3605278944211
attr source  cqiDlMuMimo2
attr title  "Average cqi MuMimo band 2, lteAvg"
attr unit  cqi
scalar CAINsimple.eNodeB[0].nic.mac 	cqiDlMuMimo1:lteAvg 	14.96100779844
attr source  cqiDlMuMimo1
attr title  "Average cqi MuMimo band 1, lteAvg"
attr unit  cqi
scalar CAINsimple.eNodeB[0].nic.mac 	cqiDlMuMimo1:lteAvg 	13.035392921416
attr source  cqiDlMuMimo1
attr title  "Average cqi MuMimo band 1, lteAvg"
attr unit  cqi
scalar CAINsimple.eNodeB[0].nic.mac 	cqiDlMuMimo1:lteAvg 	7.8524295140972
attr source  cqiDlMuMimo1
attr title  "Average cqi MuMimo band 1, lteAvg"
attr unit  cqi
scalar CAINsimple.eNodeB[0].nic.mac 	cqiDlMuMimo1:lteAvg 	9.8278344331134
attr source  cqiDlMuMimo1
attr title  "Average cqi MuMimo band 1, lteAvg"
attr unit  cqi
scalar CAINsimple.eNodeB[0].nic.mac 	cqiDlMuMimo1:lteAvg 	3.4379124175165
attr source  cqiDlMuMimo1
attr title  "Average cqi MuMimo band 1, lteAvg"
attr unit  cqi
scalar CAINsimple.eNodeB[0].nic.mac 	cqiDlMuMimo1:lteAvg 	2.8236352729454
attr source  cqiDlMuMimo1
attr title  "Average cqi MuMimo band 1, lteAvg"
attr unit  cqi
scalar CAINsimple.eNodeB[0].nic.mac 	cqiDlMuMimo1:lteAvg 	3.2153569286143
attr source  cqiDlMuMimo1
attr title  "Average cqi MuMimo band 1, lteAvg"
attr unit  cqi
scalar CAINsimple.eNodeB[0].nic.mac 	cqiDlMuMimo1:lteAvg 	7.130773845231
attr source  cqiDlMuMimo1
attr title  "Average cqi MuMimo band 1, lteAvg"
attr unit  cqi
scalar CAINsimple.eNodeB[0].nic.mac 	cqiDlMuMimo1:lteAvg 	3.9538092381524
attr source  cqiDlMuMimo1
attr title  "Average cqi MuMimo band 1, lteAvg"
attr unit  cqi
scalar CAINsimple.eNodeB[0].nic.mac 	cqiDlMuMimo1:lteAvg 	8
attr source  cqiDlMuMimo1
attr title  "Average cqi MuMimo band 1, lteAvg"
attr unit  cqi
scalar CAINsimple.eNodeB[0].nic.mac 	cqiDlMuMimo1:lteAvg 	8.2321535692861
attr source  cqiDlMuMimo1
attr title  "Average cqi MuMimo band 1, lteAvg"
attr unit  cqi
scalar CAINsimple.eNodeB[0].nic.mac 	cqiDlMuMimo1:lteAvg 	10.550689862028
attr source  cqiDlMuMimo1
attr title  "Average cqi MuMimo band 1, lteAvg"
attr unit  cqi
scalar CAINsimple.eNodeB[0].nic.mac 	cqiDlMuMimo1:lteAvg 	13.98800239952
attr source  cqiDlMuMimo1
attr title  "Average cqi MuMimo band 1, lteAvg"
attr unit  cqi
scalar CAINsimple.eNodeB[0].nic.mac 	cqiDlMuMimo1:lteAvg 	4
attr source  cqiDlMuMimo1
attr title  "Average cqi MuMimo band 1, lteAvg"
attr unit  cqi
scalar CAINsimple.eNodeB[0].nic.mac 	cqiDlMuMimo1:lteAvg 	7
attr source  cqiDlMuMimo1
attr title  "Average cqi MuMimo band 1, lteAvg"
attr unit  cqi
scalar CAINsimple.eNodeB[0].nic.mac 	cqiDlMuMimo1:lteAvg 	11.839232153569
attr source  cqiDlMuMimo1
attr title  "Average cqi MuMimo band 1, lteAvg"
attr unit  cqi
scalar CAINsimple.eNodeB[0].nic.mac 	cqiDlMuMimo1:lteAvg 	1.998800239952
attr source  cqiDlMuMimo1
attr title  "Average cqi MuMimo band 1, lteAvg"
attr unit  cqi
scalar CAINsimple.eNodeB[0].nic.mac 	cqiDlMuMimo1:lteAvg 	12.688662267546
attr source  cqiDlMuMimo1
attr title  "Average cqi MuMimo band 1, lteAvg"
attr unit  cqi
scalar CAINsimple.eNodeB[0].nic.mac 	cqiDlMuMimo1:lteAvg 	2.9550089982004
attr source  cqiDlMuMimo1
attr title  "Average cqi MuMimo band 1, lteAvg"
attr unit  cqi
scalar CAINsimple.eNodeB[0].nic.mac 	cqiDlMuMimo1:lteAvg 	2.3017396520696
attr source  cqiDlMuMimo1
attr title  "Average cqi MuMimo band 1, lteAvg"
attr unit  cqi
scalar CAINsimple.eNodeB[0].nic.mac 	cqiDlMuMimo0:lteAvg 	14.016196760648
attr source  cqiDlMuMimo0
attr title  "Average cqi MuMimo band 0, lteAvg"
attr unit  cqi
scalar CAINsimple.eNodeB[0].nic.mac 	cqiDlMuMimo0:lteAvg 	11.29874025195
attr source  cqiDlMuMimo0
attr title  "Average cqi MuMimo band 0, lteAvg"
attr unit  cqi
scalar CAINsimple.eNodeB[0].nic.mac 	cqiDlMuMimo0:lteAvg 	11.364127174565
attr source  cqiDlMuMimo0
attr title  "Average cqi MuMimo band 0, lteAvg"
attr unit  cqi
scalar CAINsimple.eNodeB[0].nic.mac 	cqiDlMuMimo0:lteAvg 	9.4343131373725
attr source  cqiDlMuMimo0
attr title  "Average cqi MuMimo band 0, lteAvg"
attr unit  cqi
scalar CAINsimple.eNodeB[0].nic.mac 	cqiDlMuMimo0:lteAvg 	2.748050389922
attr source  cqiDlMuMimo0
attr title  "Average cqi MuMimo band 0, lteAvg"
attr unit  cqi
scalar CAINsimple.eNodeB[0].nic.mac 	cqiDlMuMimo0:lteAvg 	2.0725854829034
attr source  cqiDlMuMimo0
attr title  "Average cqi MuMimo band 0, lteAvg"
attr unit  cqi
scalar CAINsimple.eNodeB[0].nic.mac 	cqiDlMuMimo0:lteAvg 	4.9178164367127
attr source  cqiDlMuMimo0
attr title  "Average cqi MuMimo band 0, lteAvg"
attr unit  cqi
scalar CAINsimple.eNodeB[0].nic.mac 	cqiDlMuMimo0:lteAvg 	2.1583683263347
attr source  cqiDlMuMimo0
attr title  "Average cqi MuMimo band 0, lteAvg"
attr unit  cqi
scalar CAINsimple.eNodeB[0].nic.mac 	cqiDlMuMimo0:lteAvg 	2.0293941211758
attr source  cqiDlMuMimo0
attr title  "Average cqi MuMimo band 0, lteAvg"
attr unit  cqi
scalar CAINsimple.eNodeB[0].nic.mac 	cqiDlMuMimo0:lteAvg 	14
attr source  cqiDlMuMimo0
attr title  "Average cqi MuMimo band 0, lteAvg"
attr unit  cqi
scalar CAINsimple.eNodeB[0].nic.mac 	cqiDlMuMimo0:lteAvg 	10.261547690462
attr source  cqiDlMuMimo0
attr title  "Average cqi MuMimo band 0, lteAvg"
attr unit  cqi
scalar CAINsimple.eNodeB[0].nic.mac 	cqiDlMuMimo0:lteAvg 	14.496700659868
attr source  cqiDlMuMimo0
attr title  "Average cqi MuMimo band 0, lteAvg"
attr unit  cqi
scalar CAINsimple.eNodeB[0].nic.mac 	cqiDlMuMimo0:lteAvg 	13.575884823035
attr source  cqiDlMuMimo0
attr title  "Average cqi MuMimo band 0, lteAvg"
attr unit  cqi
scalar CAINsimple.eNodeB[0].nic.mac 	cqiDlMuMimo0:lteAvg 	9
attr source  cqiDlMuMimo0
attr title  "Average cqi MuMimo band 0, lteAvg"
attr unit  cqi
scalar CAINsimple.eNodeB[0].nic.mac 	cqiDlMuMimo0:lteAvg 	7
attr source  cqiDlMuMimo0
attr title  "Average cqi MuMimo band 0, lteAvg"
attr unit  cqi
scalar CAINsimple.eNodeB[0].nic.mac 	cqiDlMuMimo0:lteAvg 	2.5890821835633
attr source  cqiDlMuMimo0
attr title  "Average cqi MuMimo band 0, lteAvg"
attr unit  cqi
scalar CAINsimple.eNodeB[0].nic.mac 	cqiDlMuMimo0:lteAvg 	2.000599880024
attr source  cqiDlMuMimo0
attr title  "Average cqi MuMimo band 0, lteAvg"
attr unit  cqi
scalar CAINsimple.eNodeB[0].nic.mac 	cqiDlMuMimo0:lteAvg 	14.71025794841
attr source  cqiDlMuMimo0
attr title  "Average cqi MuMimo band 0, lteAvg"
attr unit  cqi
scalar CAINsimple.eNodeB[0].nic.mac 	cqiDlMuMimo0:lteAvg 	7.380923815237
attr source  cqiDlMuMimo0
attr title  "Average cqi MuMimo band 0, lteAvg"
attr unit  cqi
scalar CAINsimple.eNodeB[0].nic.mac 	cqiDlMuMimo0:lteAvg 	7.1097780443911
attr source  cqiDlMuMimo0
attr title  "Average cqi MuMimo band 0, lteAvg"
attr unit  cqi
scalar CAINsimple.eNodeB[0].nic.mac 	cqiDlTxDiv4:lteAvg 	14.992201559688
attr source  cqiDlTxDiv4
attr title  "Average cqi TxDiv band 4, lteAvg"
attr unit  cqi
scalar CAINsimple.eNodeB[0].nic.mac 	cqiDlTxDiv4:lteAvg 	14.941811637672
attr source  cqiDlTxDiv4
attr title  "Average cqi TxDiv band 4, lteAvg"
attr unit  cqi
scalar CAINsimple.eNodeB[0].nic.mac 	cqiDlTxDiv4:lteAvg 	14.970605878824
attr source  cqiDlTxDiv4
attr title  "Average cqi TxDiv band 4, lteAvg"
attr unit  cqi
scalar CAINsimple.eNodeB[0].nic.mac 	cqiDlTxDiv4:lteAvg 	14.461307738452
attr source  cqiDlTxDiv4
attr title  "Average cqi TxDiv band 4, lteAvg"
attr unit  cqi
scalar CAINsimple.eNodeB[0].nic.mac 	cqiDlTxDiv4:lteAvg 	14.339532093581
attr source  cqiDlTxDiv4
attr title  "Average cqi TxDiv band 4, lteAvg"
attr unit  cqi
scalar CAINsimple.eNodeB[0].nic.mac 	cqiDlTxDiv4:lteAvg 	13.431313737253
attr source  cqiDlTxDiv4
attr title  "Average cqi TxDiv band 4, lteAvg"
attr unit  cqi
scalar CAINsimple.eNodeB[0].nic.mac 	cqiDlTxDiv4:lteAvg 	14.457708458308
attr source  cqiDlTxDiv4
attr title  "Average cqi TxDiv band 4, lteAvg"
attr unit  cqi
scalar CAINsimple.eNodeB[0].nic.mac 	cqiDlTxDiv4:lteAvg 	14.934613077385
attr source  cqiDlTxDiv4
attr title  "Average cqi TxDiv band 4, lteAvg"
attr unit  cqi
scalar CAINsimple.eNodeB[0].nic.mac 	cqiDlTxDiv4:lteAvg 	10.376724655069
attr source  cqiDlTxDiv4
attr title  "Average cqi TxDiv band 4, lteAvg"
attr unit  cqi
scalar CAINsimple.eNodeB[0].nic.mac 	cqiDlTxDiv4:lteAvg 	15
attr source  cqiDlTxDiv4
attr title  "Average cqi TxDiv band 4, lteAvg"
attr unit  cqi
scalar CAINsimple.eNodeB[0].nic.mac 	cqiDlTxDiv4:lteAvg 	14.896820635873
attr source  cqiDlTxDiv4
attr title  "Average cqi TxDiv band 4, lteAvg"
attr unit  cqi
scalar CAINsimple.eNodeB[0].nic.mac 	cqiDlTxDiv4:lteAvg 	14.98800239952
attr source  cqiDlTxDiv4
attr title  "Average cqi TxDiv band 4, lteAvg"
attr unit  cqi
scalar CAINsimple.eNodeB[0].nic.mac 	cqiDlTxDiv4:lteAvg 	14.9850029994
attr source  cqiDlTxDiv4
attr title  "Average cqi TxDiv band 4, lteAvg"
attr unit  cqi
scalar CAINsimple.eNodeB[0].nic.mac 	cqiDlTxDiv4:lteAvg 	15
attr source  cqiDlTxDiv4
attr title  "Average cqi TxDiv band 4, lteAvg"
attr unit  cqi
scalar CAINsimple.eNodeB[0].nic.mac 	cqiDlTxDiv4:lteAvg 	15
attr source  cqiDlTxDiv4
attr title  "Average cqi TxDiv band 4, lteAvg"
attr unit  cqi
scalar CAINsimple.eNodeB[0].nic.mac 	cqiDlTxDiv4:lteAvg 	5.9190161967606
attr source  cqiDlTxDiv4
attr title  "Average cqi TxDiv band 4, lteAvg"
attr unit  cqi
scalar CAINsimple.eNodeB[0].nic.mac 	cqiDlTxDiv4:lteAvg 	2.1667666466707
attr source  cqiDlTxDiv4
attr title  "Average cqi TxDiv band 4, lteAvg"
attr unit  cqi
scalar CAINsimple.eNodeB[0].nic.mac 	cqiDlTxDiv4:lteAvg 	14.992801439712
attr source  cqiDlTxDiv4
attr title  "Average cqi TxDiv band 4, lteAvg"
attr unit  cqi
scalar CAINsimple.eNodeB[0].nic.mac 	cqiDlTxDiv4:lteAvg 	14.920215956809
attr source  cqiDlTxDiv4
attr title  "Average cqi TxDiv band 4, lteAvg"
attr unit  cqi
scalar CAINsimple.eNodeB[0].nic.mac 	cqiDlTxDiv4:lteAvg 	14.949610077984
attr source  cqiDlTxDiv4
attr title  "Average cqi TxDiv band 4, lteAvg"
attr unit  cqi
scalar CAINsimple.eNodeB[0].nic.mac 	cqiDlTxDiv3:lteAvg 	15
attr source  cqiDlTxDiv3
attr title  "Average cqi TxDiv band 3, lteAvg"
attr unit  cqi
scalar CAINsimple.eNodeB[0].nic.mac 	cqiDlTxDiv3:lteAvg 	14.94901019796
attr source  cqiDlTxDiv3
attr title  "Average cqi TxDiv band 3, lteAvg"
attr unit  cqi
scalar CAINsimple.eNodeB[0].nic.mac 	cqiDlTxDiv3:lteAvg 	14.955608878224
attr source  cqiDlTxDiv3
attr title  "Average cqi TxDiv band 3, lteAvg"
attr unit  cqi
scalar CAINsimple.eNodeB[0].nic.mac 	cqiDlTxDiv3:lteAvg 	14.941811637672
attr source  cqiDlTxDiv3
attr title  "Average cqi TxDiv band 3, lteAvg"
attr unit  cqi
scalar CAINsimple.eNodeB[0].nic.mac 	cqiDlTxDiv3:lteAvg 	14.867426514697
attr source  cqiDlTxDiv3
attr title  "Average cqi TxDiv band 3, lteAvg"
attr unit  cqi
scalar CAINsimple.eNodeB[0].nic.mac 	cqiDlTxDiv3:lteAvg 	9.0233953209358
attr source  cqiDlTxDiv3
attr title  "Average cqi TxDiv band 3, lteAvg"
attr unit  cqi
scalar CAINsimple.eNodeB[0].nic.mac 	cqiDlTxDiv3:lteAvg 	10.353329334133
attr source  cqiDlTxDiv3
attr title  "Average cqi TxDiv band 3, lteAvg"
attr unit  cqi
scalar CAINsimple.eNodeB[0].nic.mac 	cqiDlTxDiv3:lteAvg 	14.910017996401
attr source  cqiDlTxDiv3
attr title  "Average cqi TxDiv band 3, lteAvg"
attr unit  cqi
scalar CAINsimple.eNodeB[0].nic.mac 	cqiDlTxDiv3:lteAvg 	10.735452909418
attr source  cqiDlTxDiv3
attr title  "Average cqi TxDiv band 3, lteAvg"
attr unit  cqi
scalar CAINsimple.eNodeB[0].nic.mac 	cqiDlTxDiv3:lteAvg 	15
attr source  cqiDlTxDiv3
attr title  "Average cqi TxDiv band 3, lteAvg"
attr unit  cqi
scalar CAINsimple.eNodeB[0].nic.mac 	cqiDlTxDiv3:lteAvg 	12.304139172166
attr source  cqiDlTxDiv3
attr title  "Average cqi TxDiv band 3, lteAvg"
attr unit  cqi
scalar CAINsimple.eNodeB[0].nic.mac 	cqiDlTxDiv3:lteAvg 	14.999400119976
attr source  cqiDlTxDiv3
attr title  "Average cqi TxDiv band 3, lteAvg"
attr unit  cqi
scalar CAINsimple.eNodeB[0].nic.mac 	cqiDlTxDiv3:lteAvg 	14.991601679664
attr source  cqiDlTxDiv3
attr title  "Average cqi TxDiv band 3, lteAvg"
attr unit  cqi
scalar CAINsimple.eNodeB[0].nic.mac 	cqiDlTxDiv3:lteAvg 	6
attr source  cqiDlTxDiv3
attr title  "Average cqi TxDiv band 3, lteAvg"
attr unit  cqi
scalar CAINsimple.eNodeB[0].nic.mac 	cqiDlTxDiv3:lteAvg 	15
attr source  cqiDlTxDiv3
attr title  "Average cqi TxDiv band 3, lteAvg"
attr unit  cqi
scalar CAINsimple.eNodeB[0].nic.mac 	cqiDlTxDiv3:lteAvg 	14.793641271746
attr source  cqiDlTxDiv3
attr title  "Average cqi TxDiv band 3, lteAvg"
attr unit  cqi
scalar CAINsimple.eNodeB[0].nic.mac 	cqiDlTxDiv3:lteAvg 	3.9184163167367
attr source  cqiDlTxDiv3
attr title  "Average cqi TxDiv band 3, lteAvg"
attr unit  cqi
scalar CAINsimple.eNodeB[0].nic.mac 	cqiDlTxDiv3:lteAvg 	14.988602279544
attr source  cqiDlTxDiv3
attr title  "Average cqi TxDiv band 3, lteAvg"
attr unit  cqi
scalar CAINsimple.eNodeB[0].nic.mac 	cqiDlTxDiv3:lteAvg 	14.923815236953
attr source  cqiDlTxDiv3
attr title  "Average cqi TxDiv band 3, lteAvg"
attr unit  cqi
scalar CAINsimple.eNodeB[0].nic.mac 	cqiDlTxDiv3:lteAvg 	14.929214157169
attr source  cqiDlTxDiv3
attr title  "Average cqi TxDiv band 3, lteAvg"
attr unit  cqi
scalar CAINsimple.eNodeB[0].nic.mac 	cqiDlTxDiv2:lteAvg 	14.996400719856
attr source  cqiDlTxDiv2
attr title  "Average cqi TxDiv band 2, lteAvg"
attr unit  cqi
scalar CAINsimple.eNodeB[0].nic.mac 	cqiDlTxDiv2:lteAvg 	14.965806838632
attr source  cqiDlTxDiv2
attr title  "Average cqi TxDiv band 2, lteAvg"
attr unit  cqi
scalar CAINsimple.eNodeB[0].nic.mac 	cqiDlTxDiv2:lteAvg 	12.98200359928
attr source  cqiDlTxDiv2
attr title  "Average cqi TxDiv band 2, lteAvg"
attr unit  cqi
scalar CAINsimple.eNodeB[0].nic.mac 	cqiDlTxDiv2:lteAvg 	14.944211157768
attr source  cqiDlTxDiv2
attr title  "Average cqi TxDiv band 2, lteAvg"
attr unit  cqi
scalar CAINsimple.eNodeB[0].nic.mac 	cqiDlTxDiv2:lteAvg 	13.496100779844
attr source  cqiDlTxDiv2
attr title  "Average cqi TxDiv band 2, lteAvg"
attr unit  cqi
scalar CAINsimple.eNodeB[0].nic.mac 	cqiDlTxDiv2:lteAvg 	9.9808038392322
attr source  cqiDlTxDiv2
attr title  "Average cqi TxDiv band 2, lteAvg"
attr unit  cqi
scalar CAINsimple.eNodeB[0].nic.mac 	cqiDlTxDiv2:lteAvg 	14.918416316737
attr source  cqiDlTxDiv2
attr title  "Average cqi TxDiv band 2, lteAvg"
attr unit  cqi
scalar CAINsimple.eNodeB[0].nic.mac 	cqiDlTxDiv2:lteAvg 	14.234553089382
attr source  cqiDlTxDiv2
attr title  "Average cqi TxDiv band 2, lteAvg"
attr unit  cqi
scalar CAINsimple.eNodeB[0].nic.mac 	cqiDlTxDiv2:lteAvg 	12.238152369526
attr source  cqiDlTxDiv2
attr title  "Average cqi TxDiv band 2, lteAvg"
attr unit  cqi
scalar CAINsimple.eNodeB[0].nic.mac 	cqiDlTxDiv2:lteAvg 	15
attr source  cqiDlTxDiv2
attr title  "Average cqi TxDiv band 2, lteAvg"
attr unit  cqi
scalar CAINsimple.eNodeB[0].nic.mac 	cqiDlTxDiv2:lteAvg 	12.290941811638
attr source  cqiDlTxDiv2
attr title  "Average cqi TxDiv band 2, lteAvg"
attr unit  cqi
scalar CAINsimple.eNodeB[0].nic.mac 	cqiDlTxDiv2:lteAvg 	14.239352129574
attr source  cqiDlTxDiv2
attr title  "Average cqi TxDiv band 2, lteAvg"
attr unit  cqi
scalar CAINsimple.eNodeB[0].nic.mac 	cqiDlTxDiv2:lteAvg 	14.99700059988
attr source  cqiDlTxDiv2
attr title  "Average cqi TxDiv band 2, lteAvg"
attr unit  cqi
scalar CAINsimple.eNodeB[0].nic.mac 	cqiDlTxDiv2:lteAvg 	15
attr source  cqiDlTxDiv2
attr title  "Average cqi TxDiv band 2, lteAvg"
attr unit  cqi
scalar CAINsimple.eNodeB[0].nic.mac 	cqiDlTxDiv2:lteAvg 	15
attr source  cqiDlTxDiv2
attr title  "Average cqi TxDiv band 2, lteAvg"
attr unit  cqi
scalar CAINsimple.eNodeB[0].nic.mac 	cqiDlTxDiv2:lteAvg 	14.925614877025
attr source  cqiDlTxDiv2
attr title  "Average cqi TxDiv band 2, lteAvg"
attr unit  cqi
scalar CAINsimple.eNodeB[0].nic.mac 	cqiDlTxDiv2:lteAvg 	6.6508698260348
attr source  cqiDlTxDiv2
attr title  "Average cqi TxDiv band 2, lteAvg"
attr unit  cqi
scalar CAINsimple.eNodeB[0].nic.mac 	cqiDlTxDiv2:lteAvg 	14.572285542891
attr source  cqiDlTxDiv2
attr title  "Average cqi TxDiv band 2, lteAvg"
attr unit  cqi
scalar CAINsimple.eNodeB[0].nic.mac 	cqiDlTxDiv2:lteAvg 	14.933413317337
attr source  cqiDlTxDiv2
attr title  "Average cqi TxDiv band 2, lteAvg"
attr unit  cqi
scalar CAINsimple.eNodeB[0].nic.mac 	cqiDlTxDiv2:lteAvg 	14.935212957409
attr source  cqiDlTxDiv2
attr title  "Average cqi TxDiv band 2, lteAvg"
attr unit  cqi
scalar CAINsimple.eNodeB[0].nic.mac 	cqiDlTxDiv1:lteAvg 	14.996400719856
attr source  cqiDlTxDiv1
attr title  "Average cqi TxDiv band 1, lteAvg"
attr unit  cqi
scalar CAINsimple.eNodeB[0].nic.mac 	cqiDlTxDiv1:lteAvg 	14.95200959808
attr source  cqiDlTxDiv1
attr title  "Average cqi TxDiv band 1, lteAvg"
attr unit  cqi
scalar CAINsimple.eNodeB[0].nic.mac 	cqiDlTxDiv1:lteAvg 	14.533293341332
attr source  cqiDlTxDiv1
attr title  "Average cqi TxDiv band 1, lteAvg"
attr unit  cqi
scalar CAINsimple.eNodeB[0].nic.mac 	cqiDlTxDiv1:lteAvg 	14.965206958608
attr source  cqiDlTxDiv1
attr title  "Average cqi TxDiv band 1, lteAvg"
attr unit  cqi
scalar CAINsimple.eNodeB[0].nic.mac 	cqiDlTxDiv1:lteAvg 	14.367726454709
attr source  cqiDlTxDiv1
attr title  "Average cqi TxDiv band 1, lteAvg"
attr unit  cqi
scalar CAINsimple.eNodeB[0].nic.mac 	cqiDlTxDiv1:lteAvg 	9.9838032393521
attr source  cqiDlTxDiv1
attr title  "Average cqi TxDiv band 1, lteAvg"
attr unit  cqi
scalar CAINsimple.eNodeB[0].nic.mac 	cqiDlTxDiv1:lteAvg 	11.502699460108
attr source  cqiDlTxDiv1
attr title  "Average cqi TxDiv band 1, lteAvg"
attr unit  cqi
scalar CAINsimple.eNodeB[0].nic.mac 	cqiDlTxDiv1:lteAvg 	14.672465506899
attr source  cqiDlTxDiv1
attr title  "Average cqi TxDiv band 1, lteAvg"
attr unit  cqi
scalar CAINsimple.eNodeB[0].nic.mac 	cqiDlTxDiv1:lteAvg 	13.440911817636
attr source  cqiDlTxDiv1
attr title  "Average cqi TxDiv band 1, lteAvg"
attr unit  cqi
scalar CAINsimple.eNodeB[0].nic.mac 	cqiDlTxDiv1:lteAvg 	15
attr source  cqiDlTxDiv1
attr title  "Average cqi TxDiv band 1, lteAvg"
attr unit  cqi
scalar CAINsimple.eNodeB[0].nic.mac 	cqiDlTxDiv1:lteAvg 	14.925614877025
attr source  cqiDlTxDiv1
attr title  "Average cqi TxDiv band 1, lteAvg"
attr unit  cqi
scalar CAINsimple.eNodeB[0].nic.mac 	cqiDlTxDiv1:lteAvg 	14.993401319736
attr source  cqiDlTxDiv1
attr title  "Average cqi TxDiv band 1, lteAvg"
attr unit  cqi
scalar CAINsimple.eNodeB[0].nic.mac 	cqiDlTxDiv1:lteAvg 	14.99100179964
attr source  cqiDlTxDiv1
attr title  "Average cqi TxDiv band 1, lteAvg"
attr unit  cqi
scalar CAINsimple.eNodeB[0].nic.mac 	cqiDlTxDiv1:lteAvg 	15
attr source  cqiDlTxDiv1
attr title  "Average cqi TxDiv band 1, lteAvg"
attr unit  cqi
scalar CAINsimple.eNodeB[0].nic.mac 	cqiDlTxDiv1:lteAvg 	15
attr source  cqiDlTxDiv1
attr title  "Average cqi TxDiv band 1, lteAvg"
attr unit  cqi
scalar CAINsimple.eNodeB[0].nic.mac 	cqiDlTxDiv1:lteAvg 	14.925014997001
attr source  cqiDlTxDiv1
attr title  "Average cqi TxDiv band 1, lteAvg"
attr unit  cqi
scalar CAINsimple.eNodeB[0].nic.mac 	cqiDlTxDiv1:lteAvg 	6.622675464907
attr source  cqiDlTxDiv1
attr title  "Average cqi TxDiv band 1, lteAvg"
attr unit  cqi
scalar CAINsimple.eNodeB[0].nic.mac 	cqiDlTxDiv1:lteAvg 	14.992201559688
attr source  cqiDlTxDiv1
attr title  "Average cqi TxDiv band 1, lteAvg"
attr unit  cqi
scalar CAINsimple.eNodeB[0].nic.mac 	cqiDlTxDiv1:lteAvg 	11.670665866827
attr source  cqiDlTxDiv1
attr title  "Average cqi TxDiv band 1, lteAvg"
attr unit  cqi
scalar CAINsimple.eNodeB[0].nic.mac 	cqiDlTxDiv1:lteAvg 	7.7702459508098
attr source  cqiDlTxDiv1
attr title  "Average cqi TxDiv band 1, lteAvg"
attr unit  cqi
scalar CAINsimple.eNodeB[0].nic.mac 	cqiDlTxDiv0:lteAvg 	14.998800239952
attr source  cqiDlTxDiv0
attr title  "Average cqi TxDiv band 0, lteAvg"
attr unit  cqi
scalar CAINsimple.eNodeB[0].nic.mac 	cqiDlTxDiv0:lteAvg 	14.96700659868
attr source  cqiDlTxDiv0
attr title  "Average cqi TxDiv band 0, lteAvg"
attr unit  cqi
scalar CAINsimple.eNodeB[0].nic.mac 	cqiDlTxDiv0:lteAvg 	14.969406118776
attr source  cqiDlTxDiv0
attr title  "Average cqi TxDiv band 0, lteAvg"
attr unit  cqi
scalar CAINsimple.eNodeB[0].nic.mac 	cqiDlTxDiv0:lteAvg 	14.974805038992
attr source  cqiDlTxDiv0
attr title  "Average cqi TxDiv band 0, lteAvg"
attr unit  cqi
scalar CAINsimple.eNodeB[0].nic.mac 	cqiDlTxDiv0:lteAvg 	12.140371925615
attr source  cqiDlTxDiv0
attr title  "Average cqi TxDiv band 0, lteAvg"
attr unit  cqi
scalar CAINsimple.eNodeB[0].nic.mac 	cqiDlTxDiv0:lteAvg 	2.9760047990402
attr source  cqiDlTxDiv0
attr title  "Average cqi TxDiv band 0, lteAvg"
attr unit  cqi
scalar CAINsimple.eNodeB[0].nic.mac 	cqiDlTxDiv0:lteAvg 	13.810437912418
attr source  cqiDlTxDiv0
attr title  "Average cqi TxDiv band 0, lteAvg"
attr unit  cqi
scalar CAINsimple.eNodeB[0].nic.mac 	cqiDlTxDiv0:lteAvg 	5.2291541691662
attr source  cqiDlTxDiv0
attr title  "Average cqi TxDiv band 0, lteAvg"
attr unit  cqi
scalar CAINsimple.eNodeB[0].nic.mac 	cqiDlTxDiv0:lteAvg 	7.1859628074385
attr source  cqiDlTxDiv0
attr title  "Average cqi TxDiv band 0, lteAvg"
attr unit  cqi
scalar CAINsimple.eNodeB[0].nic.mac 	cqiDlTxDiv0:lteAvg 	15
attr source  cqiDlTxDiv0
attr title  "Average cqi TxDiv band 0, lteAvg"
attr unit  cqi
scalar CAINsimple.eNodeB[0].nic.mac 	cqiDlTxDiv0:lteAvg 	14.911217756449
attr source  cqiDlTxDiv0
attr title  "Average cqi TxDiv band 0, lteAvg"
attr unit  cqi
scalar CAINsimple.eNodeB[0].nic.mac 	cqiDlTxDiv0:lteAvg 	14.999400119976
attr source  cqiDlTxDiv0
attr title  "Average cqi TxDiv band 0, lteAvg"
attr unit  cqi
scalar CAINsimple.eNodeB[0].nic.mac 	cqiDlTxDiv0:lteAvg 	14.998800239952
attr source  cqiDlTxDiv0
attr title  "Average cqi TxDiv band 0, lteAvg"
attr unit  cqi
scalar CAINsimple.eNodeB[0].nic.mac 	cqiDlTxDiv0:lteAvg 	15
attr source  cqiDlTxDiv0
attr title  "Average cqi TxDiv band 0, lteAvg"
attr unit  cqi
scalar CAINsimple.eNodeB[0].nic.mac 	cqiDlTxDiv0:lteAvg 	15
attr source  cqiDlTxDiv0
attr title  "Average cqi TxDiv band 0, lteAvg"
attr unit  cqi
scalar CAINsimple.eNodeB[0].nic.mac 	cqiDlTxDiv0:lteAvg 	10.96100779844
attr source  cqiDlTxDiv0
attr title  "Average cqi TxDiv band 0, lteAvg"
attr unit  cqi
scalar CAINsimple.eNodeB[0].nic.mac 	cqiDlTxDiv0:lteAvg 	5.4751049790042
attr source  cqiDlTxDiv0
attr title  "Average cqi TxDiv band 0, lteAvg"
attr unit  cqi
scalar CAINsimple.eNodeB[0].nic.mac 	cqiDlTxDiv0:lteAvg 	14.99100179964
attr source  cqiDlTxDiv0
attr title  "Average cqi TxDiv band 0, lteAvg"
attr unit  cqi
scalar CAINsimple.eNodeB[0].nic.mac 	cqiDlTxDiv0:lteAvg 	14.947810437912
attr source  cqiDlTxDiv0
attr title  "Average cqi TxDiv band 0, lteAvg"
attr unit  cqi
scalar CAINsimple.eNodeB[0].nic.mac 	cqiDlTxDiv0:lteAvg 	14.933413317337
attr source  cqiDlTxDiv0
attr title  "Average cqi TxDiv band 0, lteAvg"
attr unit  cqi
scalar CAINsimple.eNodeB[0].nic.mac 	cqiDlSpmux4:lteAvg 	14.922615476905
attr source  cqiDlSpmux4
attr title  "Average cqi Spmux band 4, lteAvg"
attr unit  cqi
scalar CAINsimple.eNodeB[0].nic.mac 	cqiDlSpmux4:lteAvg 	10.74325134973
attr source  cqiDlSpmux4
attr title  "Average cqi Spmux band 4, lteAvg"
attr unit  cqi
scalar CAINsimple.eNodeB[0].nic.mac 	cqiDlSpmux4:lteAvg 	7.5932813437313
attr source  cqiDlSpmux4
attr title  "Average cqi Spmux band 4, lteAvg"
attr unit  cqi
scalar CAINsimple.eNodeB[0].nic.mac 	cqiDlSpmux4:lteAvg 	5.0911817636473
attr source  cqiDlSpmux4
attr title  "Average cqi Spmux band 4, lteAvg"
attr unit  cqi
scalar CAINsimple.eNodeB[0].nic.mac 	cqiDlSpmux4:lteAvg 	4.6916616676665
attr source  cqiDlSpmux4
attr title  "Average cqi Spmux band 4, lteAvg"
attr unit  cqi
scalar CAINsimple.eNodeB[0].nic.mac 	cqiDlSpmux4:lteAvg 	5.4769046190762
attr source  cqiDlSpmux4
attr title  "Average cqi Spmux band 4, lteAvg"
attr unit  cqi
scalar CAINsimple.eNodeB[0].nic.mac 	cqiDlSpmux4:lteAvg 	6.3149370125975
attr source  cqiDlSpmux4
attr title  "Average cqi Spmux band 4, lteAvg"
attr unit  cqi
scalar CAINsimple.eNodeB[0].nic.mac 	cqiDlSpmux4:lteAvg 	8.1949610077984
attr source  cqiDlSpmux4
attr title  "Average cqi Spmux band 4, lteAvg"
attr unit  cqi
scalar CAINsimple.eNodeB[0].nic.mac 	cqiDlSpmux4:lteAvg 	2.8470305938812
attr source  cqiDlSpmux4
attr title  "Average cqi Spmux band 4, lteAvg"
attr unit  cqi
scalar CAINsimple.eNodeB[0].nic.mac 	cqiDlSpmux4:lteAvg 	7
attr source  cqiDlSpmux4
attr title  "Average cqi Spmux band 4, lteAvg"
attr unit  cqi
scalar CAINsimple.eNodeB[0].nic.mac 	cqiDlSpmux4:lteAvg 	8.1631673665267
attr source  cqiDlSpmux4
attr title  "Average cqi Spmux band 4, lteAvg"
attr unit  cqi
scalar CAINsimple.eNodeB[0].nic.mac 	cqiDlSpmux4:lteAvg 	7.6058788242352
attr source  cqiDlSpmux4
attr title  "Average cqi Spmux band 4, lteAvg"
attr unit  cqi
scalar CAINsimple.eNodeB[0].nic.mac 	cqiDlSpmux4:lteAvg 	12.81223755249
attr source  cqiDlSpmux4
attr title  "Average cqi Spmux band 4, lteAvg"
attr unit  cqi
scalar CAINsimple.eNodeB[0].nic.mac 	cqiDlSpmux4:lteAvg 	6
attr source  cqiDlSpmux4
attr title  "Average cqi Spmux band 4, lteAvg"
attr unit  cqi
scalar CAINsimple.eNodeB[0].nic.mac 	cqiDlSpmux4:lteAvg 	7
attr source  cqiDlSpmux4
attr title  "Average cqi Spmux band 4, lteAvg"
attr unit  cqi
scalar CAINsimple.eNodeB[0].nic.mac 	cqiDlSpmux4:lteAvg 	2.2321535692861
attr source  cqiDlSpmux4
attr title  "Average cqi Spmux band 4, lteAvg"
attr unit  cqi
scalar CAINsimple.eNodeB[0].nic.mac 	cqiDlSpmux4:lteAvg 	1.998800239952
attr source  cqiDlSpmux4
attr title  "Average cqi Spmux band 4, lteAvg"
attr unit  cqi
scalar CAINsimple.eNodeB[0].nic.mac 	cqiDlSpmux4:lteAvg 	7.2129574085183
attr source  cqiDlSpmux4
attr title  "Average cqi Spmux band 4, lteAvg"
attr unit  cqi
scalar CAINsimple.eNodeB[0].nic.mac 	cqiDlSpmux4:lteAvg 	6.50149970006
attr source  cqiDlSpmux4
attr title  "Average cqi Spmux band 4, lteAvg"
attr unit  cqi
scalar CAINsimple.eNodeB[0].nic.mac 	cqiDlSpmux4:lteAvg 	6.2843431313737
attr source  cqiDlSpmux4
attr title  "Average cqi Spmux band 4, lteAvg"
attr unit  cqi
scalar CAINsimple.eNodeB[0].nic.mac 	cqiDlSpmux3:lteAvg 	11.47450509898
attr source  cqiDlSpmux3
attr title  "Average cqi Spmux band 3, lteAvg"
attr unit  cqi
scalar CAINsimple.eNodeB[0].nic.mac 	cqiDlSpmux3:lteAvg 	9.4235152969406
attr source  cqiDlSpmux3
attr title  "Average cqi Spmux band 3, lteAvg"
attr unit  cqi
scalar CAINsimple.eNodeB[0].nic.mac 	cqiDlSpmux3:lteAvg 	8.2375524895021
attr source  cqiDlSpmux3
attr title  "Average cqi Spmux band 3, lteAvg"
attr unit  cqi
scalar CAINsimple.eNodeB[0].nic.mac 	cqiDlSpmux3:lteAvg 	7.4067186562687
attr source  cqiDlSpmux3
attr title  "Average cqi Spmux band 3, lteAvg"
attr unit  cqi
scalar CAINsimple.eNodeB[0].nic.mac 	cqiDlSpmux3:lteAvg 	5.6568686262747
attr source  cqiDlSpmux3
attr title  "Average cqi Spmux band 3, lteAvg"
attr unit  cqi
scalar CAINsimple.eNodeB[0].nic.mac 	cqiDlSpmux3:lteAvg 	2.8950209958008
attr source  cqiDlSpmux3
attr title  "Average cqi Spmux band 3, lteAvg"
attr unit  cqi
scalar CAINsimple.eNodeB[0].nic.mac 	cqiDlSpmux3:lteAvg 	3.0359928014397
attr source  cqiDlSpmux3
attr title  "Average cqi Spmux band 3, lteAvg"
attr unit  cqi
scalar CAINsimple.eNodeB[0].nic.mac 	cqiDlSpmux3:lteAvg 	7.5452909418116
attr source  cqiDlSpmux3
attr title  "Average cqi Spmux band 3, lteAvg"
attr unit  cqi
scalar CAINsimple.eNodeB[0].nic.mac 	cqiDlSpmux3:lteAvg 	3.0083983203359
attr source  cqiDlSpmux3
attr title  "Average cqi Spmux band 3, lteAvg"
attr unit  cqi
scalar CAINsimple.eNodeB[0].nic.mac 	cqiDlSpmux3:lteAvg 	8
attr source  cqiDlSpmux3
attr title  "Average cqi Spmux band 3, lteAvg"
attr unit  cqi
scalar CAINsimple.eNodeB[0].nic.mac 	cqiDlSpmux3:lteAvg 	3.8188362327534
attr source  cqiDlSpmux3
attr title  "Average cqi Spmux band 3, lteAvg"
attr unit  cqi
scalar CAINsimple.eNodeB[0].nic.mac 	cqiDlSpmux3:lteAvg 	10.296940611878
attr source  cqiDlSpmux3
attr title  "Average cqi Spmux band 3, lteAvg"
attr unit  cqi
scalar CAINsimple.eNodeB[0].nic.mac 	cqiDlSpmux3:lteAvg 	13.343731253749
attr source  cqiDlSpmux3
attr title  "Average cqi Spmux band 3, lteAvg"
attr unit  cqi
scalar CAINsimple.eNodeB[0].nic.mac 	cqiDlSpmux3:lteAvg 	2
attr source  cqiDlSpmux3
attr title  "Average cqi Spmux band 3, lteAvg"
attr unit  cqi
scalar CAINsimple.eNodeB[0].nic.mac 	cqiDlSpmux3:lteAvg 	6
attr source  cqiDlSpmux3
attr title  "Average cqi Spmux band 3, lteAvg"
attr unit  cqi
scalar CAINsimple.eNodeB[0].nic.mac 	cqiDlSpmux3:lteAvg 	6.6844631073785
attr source  cqiDlSpmux3
attr title  "Average cqi Spmux band 3, lteAvg"
attr unit  cqi
scalar CAINsimple.eNodeB[0].nic.mac 	cqiDlSpmux3:lteAvg 	2.00299940012
attr source  cqiDlSpmux3
attr title  "Average cqi Spmux band 3, lteAvg"
attr unit  cqi
scalar CAINsimple.eNodeB[0].nic.mac 	cqiDlSpmux3:lteAvg 	8.0101979604079
attr source  cqiDlSpmux3
attr title  "Average cqi Spmux band 3, lteAvg"
attr unit  cqi
scalar CAINsimple.eNodeB[0].nic.mac 	cqiDlSpmux3:lteAvg 	6.3317336532693
attr source  cqiDlSpmux3
attr title  "Average cqi Spmux band 3, lteAvg"
attr unit  cqi
scalar CAINsimple.eNodeB[0].nic.mac 	cqiDlSpmux3:lteAvg 	6.4247150569886
attr source  cqiDlSpmux3
attr title  "Average cqi Spmux band 3, lteAvg"
attr unit  cqi
scalar CAINsimple.eNodeB[0].nic.mac 	cqiDlSpmux2:lteAvg 	13.372525494901
attr source  cqiDlSpmux2
attr title  "Average cqi Spmux band 2, lteAvg"
attr unit  cqi
scalar CAINsimple.eNodeB[0].nic.mac 	cqiDlSpmux2:lteAvg 	12.049190161968
attr source  cqiDlSpmux2
attr title  "Average cqi Spmux band 2, lteAvg"
attr unit  cqi
scalar CAINsimple.eNodeB[0].nic.mac 	cqiDlSpmux2:lteAvg 	4.8278344331134
attr source  cqiDlSpmux2
attr title  "Average cqi Spmux band 2, lteAvg"
attr unit  cqi
scalar CAINsimple.eNodeB[0].nic.mac 	cqiDlSpmux2:lteAvg 	8.7822435512897
attr source  cqiDlSpmux2
attr title  "Average cqi Spmux band 2, lteAvg"
attr unit  cqi
scalar CAINsimple.eNodeB[0].nic.mac 	cqiDlSpmux2:lteAvg 	4.6172765446911
attr source  cqiDlSpmux2
attr title  "Average cqi Spmux band 2, lteAvg"
attr unit  cqi
scalar CAINsimple.eNodeB[0].nic.mac 	cqiDlSpmux2:lteAvg 	3.2357528494301
attr source  cqiDlSpmux2
attr title  "Average cqi Spmux band 2, lteAvg"
attr unit  cqi
scalar CAINsimple.eNodeB[0].nic.mac 	cqiDlSpmux2:lteAvg 	7.9178164367127
attr source  cqiDlSpmux2
attr title  "Average cqi Spmux band 2, lteAvg"
attr unit  cqi
scalar CAINsimple.eNodeB[0].nic.mac 	cqiDlSpmux2:lteAvg 	5.751649670066
attr source  cqiDlSpmux2
attr title  "Average cqi Spmux band 2, lteAvg"
attr unit  cqi
scalar CAINsimple.eNodeB[0].nic.mac 	cqiDlSpmux2:lteAvg 	3.7618476304739
attr source  cqiDlSpmux2
attr title  "Average cqi Spmux band 2, lteAvg"
attr unit  cqi
scalar CAINsimple.eNodeB[0].nic.mac 	cqiDlSpmux2:lteAvg 	6
attr source  cqiDlSpmux2
attr title  "Average cqi Spmux band 2, lteAvg"
attr unit  cqi
scalar CAINsimple.eNodeB[0].nic.mac 	cqiDlSpmux2:lteAvg 	3.8218356328734
attr source  cqiDlSpmux2
attr title  "Average cqi Spmux band 2, lteAvg"
attr unit  cqi
scalar CAINsimple.eNodeB[0].nic.mac 	cqiDlSpmux2:lteAvg 	5.7060587882424
attr source  cqiDlSpmux2
attr title  "Average cqi Spmux band 2, lteAvg"
attr unit  cqi
scalar CAINsimple.eNodeB[0].nic.mac 	cqiDlSpmux2:lteAvg 	12.261547690462
attr source  cqiDlSpmux2
attr title  "Average cqi Spmux band 2, lteAvg"
attr unit  cqi
scalar CAINsimple.eNodeB[0].nic.mac 	cqiDlSpmux2:lteAvg 	6
attr source  cqiDlSpmux2
attr title  "Average cqi Spmux band 2, lteAvg"
attr unit  cqi
scalar CAINsimple.eNodeB[0].nic.mac 	cqiDlSpmux2:lteAvg 	7
attr source  cqiDlSpmux2
attr title  "Average cqi Spmux band 2, lteAvg"
attr unit  cqi
scalar CAINsimple.eNodeB[0].nic.mac 	cqiDlSpmux2:lteAvg 	7.3017396520696
attr source  cqiDlSpmux2
attr title  "Average cqi Spmux band 2, lteAvg"
attr unit  cqi
scalar CAINsimple.eNodeB[0].nic.mac 	cqiDlSpmux2:lteAvg 	2.001199760048
attr source  cqiDlSpmux2
attr title  "Average cqi Spmux band 2, lteAvg"
attr unit  cqi
scalar CAINsimple.eNodeB[0].nic.mac 	cqiDlSpmux2:lteAvg 	6.4091181763647
attr source  cqiDlSpmux2
attr title  "Average cqi Spmux band 2, lteAvg"
attr unit  cqi
scalar CAINsimple.eNodeB[0].nic.mac 	cqiDlSpmux2:lteAvg 	6.1865626874625
attr source  cqiDlSpmux2
attr title  "Average cqi Spmux band 2, lteAvg"
attr unit  cqi
scalar CAINsimple.eNodeB[0].nic.mac 	cqiDlSpmux2:lteAvg 	6.2837432513497
attr source  cqiDlSpmux2
attr title  "Average cqi Spmux band 2, lteAvg"
attr unit  cqi
scalar CAINsimple.eNodeB[0].nic.mac 	cqiDlSpmux1:lteAvg 	14.921415716857
attr source  cqiDlSpmux1
attr title  "Average cqi Spmux band 1, lteAvg"
attr unit  cqi
scalar CAINsimple.eNodeB[0].nic.mac 	cqiDlSpmux1:lteAvg 	11.399520095981
attr source  cqiDlSpmux1
attr title  "Average cqi Spmux band 1, lteAvg"
attr unit  cqi
scalar CAINsimple.eNodeB[0].nic.mac 	cqiDlSpmux1:lteAvg 	6.4457108578284
attr source  cqiDlSpmux1
attr title  "Average cqi Spmux band 1, lteAvg"
attr unit  cqi
scalar CAINsimple.eNodeB[0].nic.mac 	cqiDlSpmux1:lteAvg 	7.4127174565087
attr source  cqiDlSpmux1
attr title  "Average cqi Spmux band 1, lteAvg"
attr unit  cqi
scalar CAINsimple.eNodeB[0].nic.mac 	cqiDlSpmux1:lteAvg 	4.6976604679064
attr source  cqiDlSpmux1
attr title  "Average cqi Spmux band 1, lteAvg"
attr unit  cqi
scalar CAINsimple.eNodeB[0].nic.mac 	cqiDlSpmux1:lteAvg 	3.2375524895021
attr source  cqiDlSpmux1
attr title  "Average cqi Spmux band 1, lteAvg"
attr unit  cqi
scalar CAINsimple.eNodeB[0].nic.mac 	cqiDlSpmux1:lteAvg 	3.7906418716257
attr source  cqiDlSpmux1
attr title  "Average cqi Spmux band 1, lteAvg"
attr unit  cqi
scalar CAINsimple.eNodeB[0].nic.mac 	cqiDlSpmux1:lteAvg 	6.2057588482304
attr source  cqiDlSpmux1
attr title  "Average cqi Spmux band 1, lteAvg"
attr unit  cqi
scalar CAINsimple.eNodeB[0].nic.mac 	cqiDlSpmux1:lteAvg 	4.5260947810438
attr source  cqiDlSpmux1
attr title  "Average cqi Spmux band 1, lteAvg"
attr unit  cqi
scalar CAINsimple.eNodeB[0].nic.mac 	cqiDlSpmux1:lteAvg 	7
attr source  cqiDlSpmux1
attr title  "Average cqi Spmux band 1, lteAvg"
attr unit  cqi
scalar CAINsimple.eNodeB[0].nic.mac 	cqiDlSpmux1:lteAvg 	6.7048590281944
attr source  cqiDlSpmux1
attr title  "Average cqi Spmux band 1, lteAvg"
attr unit  cqi
scalar CAINsimple.eNodeB[0].nic.mac 	cqiDlSpmux1:lteAvg 	7.9826034793041
attr source  cqiDlSpmux1
attr title  "Average cqi Spmux band 1, lteAvg"
attr unit  cqi
scalar CAINsimple.eNodeB[0].nic.mac 	cqiDlSpmux1:lteAvg 	13.352729454109
attr source  cqiDlSpmux1
attr title  "Average cqi Spmux band 1, lteAvg"
attr unit  cqi
scalar CAINsimple.eNodeB[0].nic.mac 	cqiDlSpmux1:lteAvg 	5
attr source  cqiDlSpmux1
attr title  "Average cqi Spmux band 1, lteAvg"
attr unit  cqi
scalar CAINsimple.eNodeB[0].nic.mac 	cqiDlSpmux1:lteAvg 	6
attr source  cqiDlSpmux1
attr title  "Average cqi Spmux band 1, lteAvg"
attr unit  cqi
scalar CAINsimple.eNodeB[0].nic.mac 	cqiDlSpmux1:lteAvg 	8.619676064787
attr source  cqiDlSpmux1
attr title  "Average cqi Spmux band 1, lteAvg"
attr unit  cqi
scalar CAINsimple.eNodeB[0].nic.mac 	cqiDlSpmux1:lteAvg 	2
attr source  cqiDlSpmux1
attr title  "Average cqi Spmux band 1, lteAvg"
attr unit  cqi
scalar CAINsimple.eNodeB[0].nic.mac 	cqiDlSpmux1:lteAvg 	10.604079184163
attr source  cqiDlSpmux1
attr title  "Average cqi Spmux band 1, lteAvg"
attr unit  cqi
scalar CAINsimple.eNodeB[0].nic.mac 	cqiDlSpmux1:lteAvg 	3.4223155368926
attr source  cqiDlSpmux1
attr title  "Average cqi Spmux band 1, lteAvg"
attr unit  cqi
scalar CAINsimple.eNodeB[0].nic.mac 	cqiDlSpmux1:lteAvg 	2.2369526094781
attr source  cqiDlSpmux1
attr title  "Average cqi Spmux band 1, lteAvg"
attr unit  cqi
scalar CAINsimple.eNodeB[0].nic.mac 	cqiDlSpmux0:lteAvg 	10.551289742052
attr source  cqiDlSpmux0
attr title  "Average cqi Spmux band 0, lteAvg"
attr unit  cqi
scalar CAINsimple.eNodeB[0].nic.mac 	cqiDlSpmux0:lteAvg 	9.4331133773245
attr source  cqiDlSpmux0
attr title  "Average cqi Spmux band 0, lteAvg"
attr unit  cqi
scalar CAINsimple.eNodeB[0].nic.mac 	cqiDlSpmux0:lteAvg 	8.7210557888422
attr source  cqiDlSpmux0
attr title  "Average cqi Spmux band 0, lteAvg"
attr unit  cqi
scalar CAINsimple.eNodeB[0].nic.mac 	cqiDlSpmux0:lteAvg 	6.994601079784
attr source  cqiDlSpmux0
attr title  "Average cqi Spmux band 0, lteAvg"
attr unit  cqi
scalar CAINsimple.eNodeB[0].nic.mac 	cqiDlSpmux0:lteAvg 	3.4559088182364
attr source  cqiDlSpmux0
attr title  "Average cqi Spmux band 0, lteAvg"
attr unit  cqi
scalar CAINsimple.eNodeB[0].nic.mac 	cqiDlSpmux0:lteAvg 	2.0677864427115
attr source  cqiDlSpmux0
attr title  "Average cqi Spmux band 0, lteAvg"
attr unit  cqi
scalar CAINsimple.eNodeB[0].nic.mac 	cqiDlSpmux0:lteAvg 	4.9724055188962
attr source  cqiDlSpmux0
attr title  "Average cqi Spmux band 0, lteAvg"
attr unit  cqi
scalar CAINsimple.eNodeB[0].nic.mac 	cqiDlSpmux0:lteAvg 	2.130173965207
attr source  cqiDlSpmux0
attr title  "Average cqi Spmux band 0, lteAvg"
attr unit  cqi
scalar CAINsimple.eNodeB[0].nic.mac 	cqiDlSpmux0:lteAvg 	2.0521895620876
attr source  cqiDlSpmux0
attr title  "Average cqi Spmux band 0, lteAvg"
attr unit  cqi
scalar CAINsimple.eNodeB[0].nic.mac 	cqiDlSpmux0:lteAvg 	11
attr source  cqiDlSpmux0
attr title  "Average cqi Spmux band 0, lteAvg"
attr unit  cqi
scalar CAINsimple.eNodeB[0].nic.mac 	cqiDlSpmux0:lteAvg 	7.631073785243
attr source  cqiDlSpmux0
attr title  "Average cqi Spmux band 0, lteAvg"
attr unit  cqi
scalar CAINsimple.eNodeB[0].nic.mac 	cqiDlSpmux0:lteAvg 	13.4475104979
attr source  cqiDlSpmux0
attr title  "Average cqi Spmux band 0, lteAvg"
attr unit  cqi
scalar CAINsimple.eNodeB[0].nic.mac 	cqiDlSpmux0:lteAvg 	12.617276544691
attr source  cqiDlSpmux0
attr title  "Average cqi Spmux band 0, lteAvg"
attr unit  cqi
scalar CAINsimple.eNodeB[0].nic.mac 	cqiDlSpmux0:lteAvg 	7
attr source  cqiDlSpmux0
attr title  "Average cqi Spmux band 0, lteAvg"
attr unit  cqi
scalar CAINsimple.eNodeB[0].nic.mac 	cqiDlSpmux0:lteAvg 	6
attr source  cqiDlSpmux0
attr title  "Average cqi Spmux band 0, lteAvg"
attr unit  cqi
scalar CAINsimple.eNodeB[0].nic.mac 	cqiDlSpmux0:lteAvg 	3.2093581283743
attr source  cqiDlSpmux0
attr title  "Average cqi Spmux band 0, lteAvg"
attr unit  cqi
scalar CAINsimple.eNodeB[0].nic.mac 	cqiDlSpmux0:lteAvg 	2.001799640072
attr source  cqiDlSpmux0
attr title  "Average cqi Spmux band 0, lteAvg"
attr unit  cqi
scalar CAINsimple.eNodeB[0].nic.mac 	cqiDlSpmux0:lteAvg 	14.039592081584
attr source  cqiDlSpmux0
attr title  "Average cqi Spmux band 0, lteAvg"
attr unit  cqi
scalar CAINsimple.eNodeB[0].nic.mac 	cqiDlSpmux0:lteAvg 	6.3401319736053
attr source  cqiDlSpmux0
attr title  "Average cqi Spmux band 0, lteAvg"
attr unit  cqi
scalar CAINsimple.eNodeB[0].nic.mac 	cqiDlSpmux0:lteAvg 	6.2771445710858
attr source  cqiDlSpmux0
attr title  "Average cqi Spmux band 0, lteAvg"
attr unit  cqi
scalar CAINsimple.eNodeB[0].nic.mac 	cqiDlSiso4:lteAvg 	14.964607078584
attr source  cqiDlSiso4
attr title  "Average cqi siso band 4, lteAvg"
attr unit  cqi
scalar CAINsimple.eNodeB[0].nic.mac 	cqiDlSiso4:lteAvg 	12.301139772046
attr source  cqiDlSiso4
attr title  "Average cqi siso band 4, lteAvg"
attr unit  cqi
scalar CAINsimple.eNodeB[0].nic.mac 	cqiDlSiso4:lteAvg 	10.337732453509
attr source  cqiDlSiso4
attr title  "Average cqi siso band 4, lteAvg"
attr unit  cqi
scalar CAINsimple.eNodeB[0].nic.mac 	cqiDlSiso4:lteAvg 	4.6832633473305
attr source  cqiDlSiso4
attr title  "Average cqi siso band 4, lteAvg"
attr unit  cqi
scalar CAINsimple.eNodeB[0].nic.mac 	cqiDlSiso4:lteAvg 	4.4139172165567
attr source  cqiDlSiso4
attr title  "Average cqi siso band 4, lteAvg"
attr unit  cqi
scalar CAINsimple.eNodeB[0].nic.mac 	cqiDlSiso4:lteAvg 	6.3611277744451
attr source  cqiDlSiso4
attr title  "Average cqi siso band 4, lteAvg"
attr unit  cqi
scalar CAINsimple.eNodeB[0].nic.mac 	cqiDlSiso4:lteAvg 	7.0959808038392
attr source  cqiDlSiso4
attr title  "Average cqi siso band 4, lteAvg"
attr unit  cqi
scalar CAINsimple.eNodeB[0].nic.mac 	cqiDlSiso4:lteAvg 	10.259148170366
attr source  cqiDlSiso4
attr title  "Average cqi siso band 4, lteAvg"
attr unit  cqi
scalar CAINsimple.eNodeB[0].nic.mac 	cqiDlSiso4:lteAvg 	2.25374925015
attr source  cqiDlSiso4
attr title  "Average cqi siso band 4, lteAvg"
attr unit  cqi
scalar CAINsimple.eNodeB[0].nic.mac 	cqiDlSiso4:lteAvg 	10
attr source  cqiDlSiso4
[...]
attr interpolationmode  none
attr title  "# of devices served on cain forwarding, last"
scalar CAINsimple.ueD2DTx[18].nic.mac 	HopDistanceSignal:count 	0
attr interpolationmode  none
attr title  "Distance to enb with hop forwarding, count"
scalar CAINsimple.ueD2DTx[18].nic.mac 	HopDistanceSignal:max 	-nan
attr interpolationmode  none
attr title  "Distance to enb with hop forwarding, max"
scalar CAINsimple.ueD2DTx[18].nic.mac 	DistanceSignal:count 	0
attr interpolationmode  none
attr title  "Distance to enb, count"
scalar CAINsimple.ueD2DTx[18].nic.mac 	DistanceSignal:max 	-nan
attr interpolationmode  none
attr title  "Distance to enb, max"
scalar CAINsimple.ueD2DTx[18].nic.mac 	CainHopMessageSent:count 	301
attr interpolationmode  none
attr title  "# of Sent CAIN hop message, count"
scalar CAINsimple.ueD2DTx[18].nic.mac 	CainMessageSent:count 	899
attr interpolationmode  none
attr title  "# of Sent CAIN message, count"
scalar CAINsimple.ueD2DTx[18].nic.mac 	DropedHopMessage:count 	0
attr interpolationmode  none
attr title  "Droped Hop CAIN message due to RB not available, count"
scalar CAINsimple.ueD2DTx[18].nic.mac 	DropedCainMessage:count 	0
attr interpolationmode  none
attr title  "Droped CAIN message due to RB not available, count"
scalar CAINsimple.ueD2DTx[18].nic.mac 	CainHopMessage:count 	0
attr interpolationmode  none
attr title  "eNB received CAIN hop message, count"
scalar CAINsimple.ueD2DTx[18].nic.mac 	CainMessage:count 	0
attr interpolationmode  none
attr title  "eNB received CAIN message, count"
scalar CAINsimple.ueD2DTx[18].nic.mac 	measuredItbs:mean 	-nan
attr source  measuredItbs
attr title  "TBS index, mean"
attr unit  ""
scalar CAINsimple.ueD2DTx[18].nic.mac 	harqErrorRate_4th_D2D:mean 	-nan
attr source  harqErrorRate_4th_D2D
attr title  "Harq Error Rate D2D, mean"
attr unit  ""
scalar CAINsimple.ueD2DTx[18].nic.mac 	harqErrorRate_4th_Dl:mean 	-nan
attr source  harqErrorRate_4th_Dl
attr title  "Harq Error Rate Dl, mean"
attr unit  ""
scalar CAINsimple.ueD2DTx[18].nic.mac 	harqErrorRate_4th_Ul:mean 	-nan
attr source  harqErrorRate_4th_Ul
attr title  "Harq Error Rate Dl, mean"
attr unit  ""
scalar CAINsimple.ueD2DTx[18].nic.mac 	harqErrorRate_3rd_D2D:mean 	-nan
attr source  harqErrorRate_3rd_D2D
attr title  "Harq Error Rate D2D, mean"
attr unit  ""
scalar CAINsimple.ueD2DTx[18].nic.mac 	harqErrorRate_3rd_Dl:mean 	-nan
attr source  harqErrorRate_3rd_Dl
attr title  "Harq Error Rate Dl, mean"
attr unit  ""
scalar CAINsimple.ueD2DTx[18].nic.mac 	harqErrorRate_3rd_Ul:mean 	-nan
attr source  harqErrorRate_3rd_Ul
attr title  "Harq Error Rate Dl, mean"
attr unit  ""
scalar CAINsimple.ueD2DTx[18].nic.mac 	harqErrorRate_2nd_D2D:mean 	-nan
attr source  harqErrorRate_2nd_D2D
attr title  "Harq Error Rate D2D, mean"
attr unit  ""
scalar CAINsimple.ueD2DTx[18].nic.mac 	harqErrorRate_2nd_Dl:mean 	-nan
attr source  harqErrorRate_2nd_Dl
attr title  "Harq Error Rate Dl, mean"
attr unit  ""
scalar CAINsimple.ueD2DTx[18].nic.mac 	harqErrorRate_2nd_Ul:mean 	-nan
attr source  harqErrorRate_2nd_Ul
attr title  "Harq Error Rate Dl, mean"
attr unit  ""
scalar CAINsimple.ueD2DTx[18].nic.mac 	harqErrorRate_1st_D2D:mean 	-nan
attr source  harqErrorRate_1st_D2D
attr title  "Harq Error Rate D2D, mean"
attr unit  ""
scalar CAINsimple.ueD2DTx[18].nic.mac 	harqErrorRate_1st_Dl:mean 	-nan
attr source  harqErrorRate_1st_Dl
attr title  "Harq Error Rate Dl, mean"
attr unit  ""
scalar CAINsimple.ueD2DTx[18].nic.mac 	harqErrorRate_1st_Ul:mean 	-nan
attr source  harqErrorRate_1st_Ul
attr title  "Harq Error Rate Dl, mean"
attr unit  ""
scalar CAINsimple.ueD2DTx[18].nic.mac 	harqErrorRateD2D:mean 	-nan
attr source  harqErrorRateD2D
attr title  "Harq Error Rate D2D, mean"
attr unit  ""
scalar CAINsimple.ueD2DTx[18].nic.mac 	harqErrorRateDl:mean 	-nan
attr source  harqErrorRateDl
attr title  "Harq Error Rate Dl, mean"
attr unit  ""
scalar CAINsimple.ueD2DTx[18].nic.mac 	harqErrorRateUl:mean 	-nan
attr source  harqErrorRateUl
attr title  "Harq Error Rate Dl, mean"
attr unit  ""
scalar CAINsimple.ueD2DTx[18].nic.mac 	macPacketLossD2D:mean 	-nan
attr source  macPacketLossD2D
attr title  "Mac Packet Loss D2D, mean"
attr unit  ""
scalar CAINsimple.ueD2DTx[18].nic.mac 	macPacketLossDl:mean 	-nan
attr source  macPacketLossDl
attr title  "Mac Packet Loss, mean"
attr unit  ""
scalar CAINsimple.ueD2DTx[18].nic.mac 	macPacketLossUl:mean 	-nan
attr source  macPacketLossUl
attr title  "Mac Packet Loss, mean"
attr unit  ""
scalar CAINsimple.ueD2DTx[18].nic.mac 	macCellPacketLossD2D:mean 	-nan
attr source  macCellPacketLossD2D
attr title  "Mac Cell Packet Loss D2D, mean"
attr unit  ""
scalar CAINsimple.ueD2DTx[18].nic.mac 	macCellPacketLossUl:mean 	-nan
attr source  macCellPacketLossUl
attr title  "Mac Cell Packet Loss, mean"
attr unit  ""
scalar CAINsimple.ueD2DTx[18].nic.mac 	macCellPacketLossDl:mean 	-nan
attr source  macCellPacketLossDl
attr title  "Mac Cell Packet Loss, mean"
attr unit  ""
scalar CAINsimple.ueD2DTx[18].nic.mac 	sentPacketToLowerLayer:count 	3362
attr interpolationmode  none
attr source  sentPacketToLowerLayer
scalar CAINsimple.ueD2DTx[18].nic.mac 	sentPacketToLowerLayer:sum(packetBytes) 	0
attr interpolationmode  none
attr source  sentPacketToLowerLayer
scalar CAINsimple.ueD2DTx[18].nic.mac 	sentPacketToUpperLayer:count 	0
attr interpolationmode  none
attr source  sentPacketToUpperLayer
scalar CAINsimple.ueD2DTx[18].nic.mac 	sentPacketToUpperLayer:sum(packetBytes) 	0
attr interpolationmode  none
attr source  sentPacketToUpperLayer
scalar CAINsimple.ueD2DTx[18].nic.mac 	receivedPacketFromLowerLayer:count 	1377
attr interpolationmode  none
attr source  receivedPacketFromLowerLayer
scalar CAINsimple.ueD2DTx[18].nic.mac 	receivedPacketFromLowerLayer:sum(packetBytes) 	0
attr interpolationmode  none
attr source  receivedPacketFromLowerLayer
scalar CAINsimple.ueD2DTx[18].nic.mac 	receivedPacketFromUpperLayer:count 	3
attr interpolationmode  none
attr source  receivedPacketFromUpperLayer
scalar CAINsimple.ueD2DTx[18].nic.mac 	receivedPacketFromUpperLayer:sum(packetBytes) 	135
attr interpolationmode  none
attr source  receivedPacketFromUpperLayer
scalar CAINsimple.ueD2DTx[18].networkLayer.arp 	failedARPResolution:count 	0
attr title  "ARP failed resolutions, count"
scalar CAINsimple.ueD2DTx[18].networkLayer.arp 	completedARPResolution:count 	0
attr title  "ARP completed resolutions, count"
scalar CAINsimple.ueD2DTx[18].networkLayer.arp 	initiatedARPResolution:count 	0
attr title  "ARP initiated resolutions, count"
scalar CAINsimple.ueD2DTx[18].networkLayer.arp 	sentReply:count 	0
attr title  "ARP replies sent, count"
scalar CAINsimple.ueD2DTx[18].networkLayer.arp 	sentReq:count 	0
attr title  "ARP request sent, count"
scalar CAINsimple.ueD2DTx[19].tcpApp[0] 	bytesRcvd 	0
scalar CAINsimple.ueD2DTx[19].tcpApp[0] 	bytesSent 	0
scalar CAINsimple.ueD2DTx[19].tcpApp[0] 	rcvdPk:count 	0
attr interpolationmode  none
attr source  rcvdPk
attr title  "packets received, count"
scalar CAINsimple.ueD2DTx[19].tcpApp[0] 	rcvdPk:sum(packetBytes) 	0
attr interpolationmode  none
attr source  rcvdPk
attr title  "packets received, sum(packetBytes)"
statistic CAINsimple.ueD2DTx[19].tcpApp[0] 	endToEndDelay:histogram
field count 0
field mean -nan
field stddev -nan
field sum 0
field sqrsum 0
field min -nan
field max -nan
attr interpolationmode  none
attr source  messageAge(rcvdPk)
attr title  "end-to-end delay, histogram"
attr unit  s
bin	-INF	0
bin	-0.5	0
bin	-0.46666666666667	0
bin	-0.43333333333333	0
bin	-0.4	0
bin	-0.36666666666667	0
bin	-0.33333333333333	0
bin	-0.3	0
bin	-0.26666666666667	0
bin	-0.23333333333333	0
bin	-0.2	0
bin	-0.16666666666667	0
bin	-0.13333333333333	0
bin	-0.1	0
bin	-0.066666666666667	0
bin	-0.033333333333333	0
bin	0	0
bin	0.033333333333333	0
bin	0.066666666666667	0
bin	0.1	0
bin	0.13333333333333	0
bin	0.16666666666667	0
bin	0.2	0
bin	0.23333333333333	0
bin	0.26666666666667	0
bin	0.3	0
bin	0.33333333333333	0
bin	0.36666666666667	0
bin	0.4	0
bin	0.43333333333333	0
bin	0.46666666666667	0
bin	0.5	0
scalar CAINsimple.ueD2DTx[19].tcpApp[0] 	sentPk:count 	0
attr interpolationmode  none
attr source  sentPk
attr title  "packets sent, count"
scalar CAINsimple.ueD2DTx[19].tcpApp[0] 	sentPk:sum(packetBytes) 	0
attr interpolationmode  none
attr source  sentPk
attr title  "packets sent, sum(packetBytes)"
scalar CAINsimple.ueD2DTx[19].nic.pdcpRrc 	sentPacketToLowerLayer:count 	3
attr interpolationmode  none
attr source  sentPacketToLowerLayer
scalar CAINsimple.ueD2DTx[19].nic.pdcpRrc 	sentPacketToLowerLayer:sum(packetBytes) 	135
attr interpolationmode  none
attr source  sentPacketToLowerLayer
scalar CAINsimple.ueD2DTx[19].nic.pdcpRrc 	sentPacketToUpperLayer:count 	0
attr interpolationmode  none
attr source  sentPacketToUpperLayer
scalar CAINsimple.ueD2DTx[19].nic.pdcpRrc 	sentPacketToUpperLayer:sum(packetBytes) 	0
attr interpolationmode  none
attr source  sentPacketToUpperLayer
scalar CAINsimple.ueD2DTx[19].nic.pdcpRrc 	receivedPacketFromLowerLayer:count 	0
attr interpolationmode  none
attr source  receivedPacketFromLowerLayer
scalar CAINsimple.ueD2DTx[19].nic.pdcpRrc 	receivedPacketFromLowerLayer:sum(packetBytes) 	0
attr interpolationmode  none
attr source  receivedPacketFromLowerLayer
scalar CAINsimple.ueD2DTx[19].nic.pdcpRrc 	receivedPacketFromUpperLayer:count 	3
attr interpolationmode  none
attr source  receivedPacketFromUpperLayer
scalar CAINsimple.ueD2DTx[19].nic.pdcpRrc 	receivedPacketFromUpperLayer:sum(packetBytes) 	132
attr interpolationmode  none
attr source  receivedPacketFromUpperLayer
scalar CAINsimple.ueD2DTx[19].nic.mac 	devsRelaySignal:count 	0
attr interpolationmode  none
attr title  "# of unique relay devcies, count"
scalar CAINsimple.ueD2DTx[19].nic.mac 	devsRelaySignal:max 	-nan
attr interpolationmode  none
attr title  "# of unique relay devcies, max"
scalar CAINsimple.ueD2DTx[19].nic.mac 	devsRelaySignal:last 	-nan
attr interpolationmode  none
attr title  "# of unique relay devcies, last"
scalar CAINsimple.ueD2DTx[19].nic.mac 	lteMsgSignal:count 	0
attr interpolationmode  none
attr title  "# of LTE message arriving at the BS, count"
scalar CAINsimple.ueD2DTx[19].nic.mac 	lteMsgSignal:max 	-nan
attr interpolationmode  none
attr title  "# of LTE message arriving at the BS, max"
scalar CAINsimple.ueD2DTx[19].nic.mac 	lteMsgSignal:last 	-nan
attr interpolationmode  none
attr title  "# of LTE message arriving at the BS, last"
scalar CAINsimple.ueD2DTx[19].nic.mac 	dirMsgSignal:count 	0
attr interpolationmode  none
attr title  "# of direct CAIN message arriving at the BS, count"
scalar CAINsimple.ueD2DTx[19].nic.mac 	dirMsgSignal:max 	-nan
attr interpolationmode  none
attr title  "# of direct CAIN message arriving at the BS, max"
scalar CAINsimple.ueD2DTx[19].nic.mac 	dirMsgSignal:last 	-nan
attr interpolationmode  none
attr title  "# of direct CAIN message arriving at the BS, last"
scalar CAINsimple.ueD2DTx[19].nic.mac 	socialMsg:count 	0
attr interpolationmode  none
attr title  "# of social message arriving at the BS, count"
scalar CAINsimple.ueD2DTx[19].nic.mac 	socialMsg:max 	-nan
attr interpolationmode  none
attr title  "# of social message arriving at the BS, max"
scalar CAINsimple.ueD2DTx[19].nic.mac 	socialMsg:last 	-nan
attr interpolationmode  none
attr title  "# of social message arriving at the BS, last"
scalar CAINsimple.ueD2DTx[19].nic.mac 	racServedDevsSignal:count 	0
attr interpolationmode  none
attr title  "# of devices served on rac arriavall, count"
scalar CAINsimple.ueD2DTx[19].nic.mac 	racServedDevsSignal:max 	-nan
attr interpolationmode  none
attr title  "# of devices served on rac arriavall, max"
scalar CAINsimple.ueD2DTx[19].nic.mac 	racServedDevsSignal:last 	-nan
attr interpolationmode  none
attr title  "# of devices served on rac arriavall, last"
scalar CAINsimple.ueD2DTx[19].nic.mac 	racDistanceSignal:count 	0
attr interpolationmode  none
attr title  "Rac distance to enb, count"
scalar CAINsimple.ueD2DTx[19].nic.mac 	racpkt:count 	0
attr interpolationmode  none
attr title  "eNB received racpkt message, count"
scalar CAINsimple.ueD2DTx[19].nic.mac 	TotalServedDevs:count 	0
attr interpolationmode  none
attr title  "# of total devices served, count"
scalar CAINsimple.ueD2DTx[19].nic.mac 	TotalServedDevs:max 	-nan
attr interpolationmode  none
attr title  "# of total devices served, max"
scalar CAINsimple.ueD2DTx[19].nic.mac 	TotalServedDevs:last 	-nan
attr interpolationmode  none
attr title  "# of total devices served, last"
scalar CAINsimple.ueD2DTx[19].nic.mac 	ServedHopDevs:count 	0
attr interpolationmode  none
attr title  "# of devices served on hop forwarding, count"
scalar CAINsimple.ueD2DTx[19].nic.mac 	ServedHopDevs:max 	-nan
attr interpolationmode  none
attr title  "# of devices served on hop forwarding, max"
scalar CAINsimple.ueD2DTx[19].nic.mac 	ServedHopDevs:last 	-nan
attr interpolationmode  none
attr title  "# of devices served on hop forwarding, last"
scalar CAINsimple.ueD2DTx[19].nic.mac 	ServedDevs:count 	0
attr interpolationmode  none
attr title  "# of devices served on cain forwarding, count"
scalar CAINsimple.ueD2DTx[19].nic.mac 	ServedDevs:max 	-nan
attr interpolationmode  none
attr title  "# of devices served on cain forwarding, max"
scalar CAINsimple.ueD2DTx[19].nic.mac 	ServedDevs:last 	-nan
attr interpolationmode  none
attr title  "# of devices served on cain forwarding, last"
scalar CAINsimple.ueD2DTx[19].nic.mac 	HopDistanceSignal:count 	0
attr interpolationmode  none
attr title  "Distance to enb with hop forwarding, count"
scalar CAINsimple.ueD2DTx[19].nic.mac 	HopDistanceSignal:max 	-nan
attr interpolationmode  none
attr title  "Distance to enb with hop forwarding, max"
scalar CAINsimple.ueD2DTx[19].nic.mac 	DistanceSignal:count 	0
attr interpolationmode  none
attr title  "Distance to enb, count"
scalar CAINsimple.ueD2DTx[19].nic.mac 	DistanceSignal:max 	-nan
attr interpolationmode  none
attr title  "Distance to enb, max"
scalar CAINsimple.ueD2DTx[19].nic.mac 	CainHopMessageSent:count 	159
attr interpolationmode  none
attr title  "# of Sent CAIN hop message, count"
scalar CAINsimple.ueD2DTx[19].nic.mac 	CainMessageSent:count 	800
attr interpolationmode  none
attr title  "# of Sent CAIN message, count"
scalar CAINsimple.ueD2DTx[19].nic.mac 	DropedHopMessage:count 	0
attr interpolationmode  none
attr title  "Droped Hop CAIN message due to RB not available, count"
scalar CAINsimple.ueD2DTx[19].nic.mac 	DropedCainMessage:count 	0
attr interpolationmode  none
attr title  "Droped CAIN message due to RB not available, count"
scalar CAINsimple.ueD2DTx[19].nic.mac 	CainHopMessage:count 	0
attr interpolationmode  none
attr title  "eNB received CAIN hop message, count"
scalar CAINsimple.ueD2DTx[19].nic.mac 	CainMessage:count 	0
attr interpolationmode  none
attr title  "eNB received CAIN message, count"
scalar CAINsimple.ueD2DTx[19].nic.mac 	measuredItbs:mean 	-nan
attr source  measuredItbs
attr title  "TBS index, mean"
attr unit  ""
scalar CAINsimple.ueD2DTx[19].nic.mac 	harqErrorRate_4th_D2D:mean 	-nan
attr source  harqErrorRate_4th_D2D
attr title  "Harq Error Rate D2D, mean"
attr unit  ""
scalar CAINsimple.ueD2DTx[19].nic.mac 	harqErrorRate_4th_Dl:mean 	-nan
attr source  harqErrorRate_4th_Dl
attr title  "Harq Error Rate Dl, mean"
attr unit  ""
scalar CAINsimple.ueD2DTx[19].nic.mac 	harqErrorRate_4th_Ul:mean 	-nan
attr source  harqErrorRate_4th_Ul
attr title  "Harq Error Rate Dl, mean"
attr unit  ""
scalar CAINsimple.ueD2DTx[19].nic.mac 	harqErrorRate_3rd_D2D:mean 	-nan
attr source  harqErrorRate_3rd_D2D
attr title  "Harq Error Rate D2D, mean"
attr unit  ""
scalar CAINsimple.ueD2DTx[19].nic.mac 	harqErrorRate_3rd_Dl:mean 	-nan
attr source  harqErrorRate_3rd_Dl
attr title  "Harq Error Rate Dl, mean"
attr unit  ""
scalar CAINsimple.ueD2DTx[19].nic.mac 	harqErrorRate_3rd_Ul:mean 	-nan
attr source  harqErrorRate_3rd_Ul
attr title  "Harq Error Rate Dl, mean"
attr unit  ""
scalar CAINsimple.ueD2DTx[19].nic.mac 	harqErrorRate_2nd_D2D:mean 	-nan
attr source  harqErrorRate_2nd_D2D
attr title  "Harq Error Rate D2D, mean"
attr unit  ""
scalar CAINsimple.ueD2DTx[19].nic.mac 	harqErrorRate_2nd_Dl:mean 	-nan
attr source  harqErrorRate_2nd_Dl
attr title  "Harq Error Rate Dl, mean"
attr unit  ""
scalar CAINsimple.ueD2DTx[19].nic.mac 	harqErrorRate_2nd_Ul:mean 	-nan
attr source  harqErrorRate_2nd_Ul
attr title  "Harq Error Rate Dl, mean"
attr unit  ""
scalar CAINsimple.ueD2DTx[19].nic.mac 	harqErrorRate_1st_D2D:mean 	-nan
attr source  harqErrorRate_1st_D2D
attr title  "Harq Error Rate D2D, mean"
attr unit  ""
scalar CAINsimple.ueD2DTx[19].nic.mac 	harqErrorRate_1st_Dl:mean 	-nan
attr source  harqErrorRate_1st_Dl
attr title  "Harq Error Rate Dl, mean"
attr unit  ""
scalar CAINsimple.ueD2DTx[19].nic.mac 	harqErrorRate_1st_Ul:mean 	-nan
attr source  harqErrorRate_1st_Ul
attr title  "Harq Error Rate Dl, mean"
attr unit  ""
scalar CAINsimple.ueD2DTx[19].nic.mac 	harqErrorRateD2D:mean 	-nan
attr source  harqErrorRateD2D
attr title  "Harq Error Rate D2D, mean"
attr unit  ""
scalar CAINsimple.ueD2DTx[19].nic.mac 	harqErrorRateDl:mean 	-nan
attr source  harqErrorRateDl
attr title  "Harq Error Rate Dl, mean"
attr unit  ""
scalar CAINsimple.ueD2DTx[19].nic.mac 	harqErrorRateUl:mean 	-nan
attr source  harqErrorRateUl
attr title  "Harq Error Rate Dl, mean"
attr unit  ""
scalar CAINsimple.ueD2DTx[19].nic.mac 	macPacketLossD2D:mean 	-nan
attr source  macPacketLossD2D
attr title  "Mac Packet Loss D2D, mean"
attr unit  ""
scalar CAINsimple.ueD2DTx[19].nic.mac 	macPacketLossDl:mean 	-nan
attr source  macPacketLossDl
attr title  "Mac Packet Loss, mean"
attr unit  ""
scalar CAINsimple.ueD2DTx[19].nic.mac 	macPacketLossUl:mean 	-nan
attr source  macPacketLossUl
attr title  "Mac Packet Loss, mean"
attr unit  ""
scalar CAINsimple.ueD2DTx[19].nic.mac 	macCellPacketLossD2D:mean 	-nan
attr source  macCellPacketLossD2D
attr title  "Mac Cell Packet Loss D2D, mean"
attr unit  ""
scalar CAINsimple.ueD2DTx[19].nic.mac 	macCellPacketLossUl:mean 	-nan
attr source  macCellPacketLossUl
attr title  "Mac Cell Packet Loss, mean"
attr unit  ""
scalar CAINsimple.ueD2DTx[19].nic.mac 	macCellPacketLossDl:mean 	-nan
attr source  macCellPacketLossDl
attr title  "Mac Cell Packet Loss, mean"
attr unit  ""
scalar CAINsimple.ueD2DTx[19].nic.mac 	sentPacketToLowerLayer:count 	6548
attr interpolationmode  none
attr source  sentPacketToLowerLayer
scalar CAINsimple.ueD2DTx[19].nic.mac 	sentPacketToLowerLayer:sum(packetBytes) 	0
attr interpolationmode  none
attr source  sentPacketToLowerLayer
scalar CAINsimple.ueD2DTx[19].nic.mac 	sentPacketToUpperLayer:count 	0
attr interpolationmode  none
attr source  sentPacketToUpperLayer
scalar CAINsimple.ueD2DTx[19].nic.mac 	sentPacketToUpperLayer:sum(packetBytes) 	0
attr interpolationmode  none
attr source  sentPacketToUpperLayer
scalar CAINsimple.ueD2DTx[19].nic.mac 	receivedPacketFromLowerLayer:count 	4567
attr interpolationmode  none
attr source  receivedPacketFromLowerLayer
scalar CAINsimple.ueD2DTx[19].nic.mac 	receivedPacketFromLowerLayer:sum(packetBytes) 	0
attr interpolationmode  none
attr source  receivedPacketFromLowerLayer
scalar CAINsimple.ueD2DTx[19].nic.mac 	receivedPacketFromUpperLayer:count 	3
attr interpolationmode  none
attr source  receivedPacketFromUpperLayer
scalar CAINsimple.ueD2DTx[19].nic.mac 	receivedPacketFromUpperLayer:sum(packetBytes) 	135
attr interpolationmode  none
attr source  receivedPacketFromUpperLayer
scalar CAINsimple.ueD2DTx[19].networkLayer.arp 	failedARPResolution:count 	0
attr title  "ARP failed resolutions, count"
scalar CAINsimple.ueD2DTx[19].networkLayer.arp 	completedARPResolution:count 	0
attr title  "ARP completed resolutions, count"
scalar CAINsimple.ueD2DTx[19].networkLayer.arp 	initiatedARPResolution:count 	0
attr title  "ARP initiated resolutions, count"
scalar CAINsimple.ueD2DTx[19].networkLayer.arp 	sentReply:count 	0
attr title  "ARP replies sent, count"
scalar CAINsimple.ueD2DTx[19].networkLayer.arp 	sentReq:count 	0
attr title  "ARP request sent, count"
